<?xml version="1.0" encoding="UTF-8"?>
<routes xmlns:xsi="http://www.w3.org/2001/XMLSchema-instance"
        xsi:noNamespaceSchemaLocation="http://sumo.dlr.de/xsd/routes_file.xsd">
    <vTypeDistribution id="main_road_traffic"
        vTypes="car_small car_normal car_suv car_sport moto truck bus_city bus_articulated"
        probabilities="0.25 0.25 0.20 0.05 0.10 0.0007 0.0005 0.0003"/>
    <vTypeDistribution id="side_traffic"
        vTypes="car_small car_normal car_suv moto"
        probabilities="0.40 0.30 0.20 0.10"/>
    <vTypeDistribution id="light_traffic"
        vTypes="car_small car_normal car_suv moto"
        probabilities="0.50 0.25 0.20 0.05"/>
    <!-- MAIN ROAD -->
    <flow id="E0_to_E5" type="light_traffic" begin="0" end="86400" period="480"
          from="E0" via="682411362 465932558#0" to="E5"/>
    <flow id="E0_to_4659" type="main_road_traffic" begin="0" end="86400" period="6"
          from="E0" via="682411362 465932558#0 465932558#1" to="465932558#2"/>
    <flow id="E0_to_4707" type="main_road_traffic" begin="0" end="86400" period="8"
          from="E0" via="682411362 655985522" to="-470773638#0"/>
    <!-- REVERSE MAIN -->
    <flow id="R4659_to_4707" type="main_road_traffic" begin="0" end="86400" period="6"
          from="-465932558#2"
          via="-465932558#1.34 -470773638#1"
          to="-470773638#0"/>
    <flow id="R4659_to_E5" type="light_traffic" begin="0" end="86400" period="800"
          from="-465932558#2"
          via="-465932558#1"
          to="E5"/>
    <flow id="R4659_to_E6" type="main_road_traffic" begin="0" end="86400" period="8"
          from="-465932558#2"
          via="-465932558#1.34 -465932558#0 460085149"
          to="E6"/>
    <!-- SIDE ROADS -->
    <flow id="4707_to_E5" type="light_traffic" begin="0" end="86400" period="1200"
          from="470773638#0" via="470773638#1" to="E5"/>
    <flow id="4707_to_4659" type="side_traffic" begin="0" end="86400" period="12"
          from="470773638#0" via="655985523" to="465932558#2"/>
    <flow id="4707_to_E6" type="side_traffic" begin="0" end="86400" period="14"
          from="470773638#0"
          via="470773638#1 -465932558#0 460085149"
          to="E6"/>
    <!-- BUILDING EXITS -->
    <flow id="E5_out_to_4707" type="light_traffic" begin="0" end="86400" period="480"
          from="-E5" via="-470773638#1" to="-470773638#0"/>
    <flow id="E5_out_to_4659" type="light_traffic" begin="0" end="86400" period="800"
          from="-E5" via="465932558#1" to="465932558#2"/>
    <flow id="E5_out_to_E6" type="light_traffic" begin="0" end="86400" period="1200"
          from="-E5" via="-465932558#0 460085149" to="E6"/>
</routes>