<configuration>
  <input>
    <net-file value="C:/DRL_TRAFFIC/network_tripled.net.xml"/>
    <route-files value="C:/DRL_TRAFFIC/routes.rou.xml"/>
    <additional-files value="C:/DRL_TRAFFIC/vtypes.add.xml, C:/DRL_TRAFFIC/tls.add.xml"/>
  </input>

  <time>
    <begin value="0"/>
    <end value="99999999"/>
    <step-length value="1.0"/>
  </time>
</configuration>