<?xml version="1.0" encoding="UTF-8"?>

<sumoConfiguration xmlns:xsi="http://www.w3.org/2001/XMLSchema-instance"
    xsi:noNamespaceSchemaLocation="http://sumo.dlr.de/xsd/sumoConfiguration.xsd">

    <input>
        <net-file value="network_tripled.net.xml"/>
        <route-files value="triple_routes_clean.rou.xml"/>
    </input>

    <time>
        <begin value="0"/>
        <end value="999999"/>
    </time>

    <report>
        <no-step-log value="true"/>
    </report>

</sumoConfiguration>
