<?xml version="1.0" encoding="UTF-8"?>
<routes xmlns:xsi="http://www.w3.org/2001/XMLSchema-instance"
        xsi:noNamespaceSchemaLocation="http://sumo.dlr.de/xsd/routes_file.xsd">

    <!-- Phase 1: 0-1000s  period=60s -->
    <flow id="f_p1_0001" from="-465932558#2_C" to="-470773638#0_C" begin="0" end="1000" period="60" type="car_small"/>
    <flow id="f_p1_0002" from="-465932558#2_C" to="E5_B" begin="0" end="1000" period="60" type="car_suv"/>
    <flow id="f_p1_0003" from="-465932558#2_C" to="-470773638#0_B" begin="0" end="1000" period="60" type="car_sport"/>
    <flow id="f_p1_0004" from="-465932558#2_C" to="E5" begin="0" end="1000" period="60" type="moto"/>
    <flow id="f_p1_0005" from="-465932558#2_C" to="E6" begin="0" end="1000" period="60" type="truck"/>
    <flow id="f_p1_0006" from="470773638#0_C" to="465932558#2_C" begin="0" end="1000" period="60" type="bus_city"/>
    <flow id="f_p1_0008" from="470773638#0_C" to="E5_B" begin="0" end="1000" period="60" type="car_small"/>
    <flow id="f_p1_0009" from="470773638#0_C" to="-470773638#0_B" begin="0" end="1000" period="60" type="car_normal"/>
    <flow id="f_p1_0010" from="470773638#0_C" to="E5" begin="0" end="1000" period="60" type="car_small"/>
    <flow id="f_p1_0011" from="470773638#0_C" to="E6" begin="0" end="1000" period="60" type="car_suv"/>
    <flow id="f_p1_0012" from="-E5_B" to="465932558#2_C" begin="0" end="1000" period="60" type="car_sport"/>
    <flow id="f_p1_0013" from="-E5_B" to="-470773638#0_C" begin="0" end="1000" period="60" type="moto"/>
    <flow id="f_p1_0015" from="-E5_B" to="-470773638#0_B" begin="0" end="1000" period="60" type="bus_city"/>
    <flow id="f_p1_0016" from="-E5_B" to="E5" begin="0" end="1000" period="60" type="car_normal"/>
    <flow id="f_p1_0017" from="-E5_B" to="E6" begin="0" end="1000" period="60" type="car_small"/>
    <flow id="f_p1_0018" from="470773638#0_B" to="465932558#2_C" begin="0" end="1000" period="120" type="car_normal"/>
    <flow id="f_p1_0019" from="470773638#0_B" to="-470773638#0_C" begin="0" end="1000" period="120" type="car_small"/>
    <flow id="f_p1_0020" from="470773638#0_B" to="E5_B" begin="0" end="1000" period="120" type="car_suv"/>
    <flow id="f_p1_0022" from="470773638#0_B" to="E5" begin="0" end="1000" period="120" type="moto"/>
    <flow id="f_p1_0023" from="470773638#0_B" to="E6" begin="0" end="1000" period="120" type="truck"/>
    <flow id="f_p1_0024" from="-E5" to="465932558#2_C" begin="0" end="1000" period="60" type="bus_city"/>
    <flow id="f_p1_0025" from="-E5" to="-470773638#0_C" begin="0" end="1000" period="60" type="car_normal"/>
    <flow id="f_p1_0026" from="-E5" to="E5_B" begin="0" end="1000" period="60" type="car_small"/>
    <flow id="f_p1_0027" from="-E5" to="-470773638#0_B" begin="0" end="1000" period="60" type="car_normal"/>
    <flow id="f_p1_0029" from="-E5" to="E6" begin="0" end="1000" period="60" type="car_suv"/>
    <flow id="f_p1_0030" from="470773638#0" to="465932558#2_C" begin="0" end="1000" period="60" type="car_sport"/>
    <flow id="f_p1_0031" from="470773638#0" to="-470773638#0_C" begin="0" end="1000" period="60" type="moto"/>
    <flow id="f_p1_0032" from="470773638#0" to="E5_B" begin="0" end="1000" period="60" type="truck"/>
    <flow id="f_p1_0033" from="470773638#0" to="-470773638#0_B" begin="0" end="1000" period="60" type="bus_city"/>
    <flow id="f_p1_0034" from="470773638#0" to="E5" begin="0" end="1000" period="60" type="car_normal"/>
    <flow id="f_p1_0035" from="470773638#0" to="E6" begin="0" end="1000" period="60" type="car_small"/>
    <flow id="f_p1_0042" from="E0" to="465932558#2_C" begin="0" end="1000" period="60" type="bus_city"/>
    <flow id="f_p1_0043" from="E0" to="-470773638#0_C" begin="0" end="1000" period="60" type="car_normal"/>
    <flow id="f_p1_0044" from="E0" to="E5_B" begin="0" end="1000" period="60" type="car_small"/>
    <flow id="f_p1_0045" from="E0" to="-470773638#0_B" begin="0" end="1000" period="60" type="car_normal"/>
    <flow id="f_p1_0046" from="E0" to="E5" begin="0" end="1000" period="60" type="car_small"/>

    <!-- Phase 2: 1000-2000s  period=30s -->
    <flow id="f_p2_0049" from="-465932558#2_C" to="-470773638#0_C" begin="1000" end="2000" period="30" type="moto"/>
    <flow id="f_p2_0050" from="-465932558#2_C" to="E5_B" begin="1000" end="2000" period="30" type="truck"/>
    <flow id="f_p2_0051" from="-465932558#2_C" to="-470773638#0_B" begin="1000" end="2000" period="30" type="bus_city"/>
    <flow id="f_p2_0052" from="-465932558#2_C" to="E5" begin="1000" end="2000" period="30" type="car_normal"/>
    <flow id="f_p2_0053" from="-465932558#2_C" to="E6" begin="1000" end="2000" period="30" type="car_small"/>
    <flow id="f_p2_0054" from="470773638#0_C" to="465932558#2_C" begin="1000" end="2000" period="30" type="car_normal"/>
    <flow id="f_p2_0056" from="470773638#0_C" to="E5_B" begin="1000" end="2000" period="30" type="car_suv"/>
    <flow id="f_p2_0057" from="470773638#0_C" to="-470773638#0_B" begin="1000" end="2000" period="30" type="car_sport"/>
    <flow id="f_p2_0058" from="470773638#0_C" to="E5" begin="1000" end="2000" period="30" type="moto"/>
    <flow id="f_p2_0059" from="470773638#0_C" to="E6" begin="1000" end="2000" period="30" type="truck"/>
    <flow id="f_p2_0060" from="-E5_B" to="465932558#2_C" begin="1000" end="2000" period="30" type="bus_city"/>
    <flow id="f_p2_0061" from="-E5_B" to="-470773638#0_C" begin="1000" end="2000" period="30" type="car_normal"/>
    <flow id="f_p2_0063" from="-E5_B" to="-470773638#0_B" begin="1000" end="2000" period="30" type="car_normal"/>
    <flow id="f_p2_0064" from="-E5_B" to="E5" begin="1000" end="2000" period="30" type="car_small"/>
    <flow id="f_p2_0065" from="-E5_B" to="E6" begin="1000" end="2000" period="30" type="car_suv"/>
    <flow id="f_p2_0066" from="470773638#0_B" to="465932558#2_C" begin="1000" end="2000" period="60" type="car_sport"/>
    <flow id="f_p2_0067" from="470773638#0_B" to="-470773638#0_C" begin="1000" end="2000" period="60" type="moto"/>
    <flow id="f_p2_0068" from="470773638#0_B" to="E5_B" begin="1000" end="2000" period="60" type="truck"/>
    <flow id="f_p2_0070" from="470773638#0_B" to="E5" begin="1000" end="2000" period="60" type="car_normal"/>
    <flow id="f_p2_0071" from="470773638#0_B" to="E6" begin="1000" end="2000" period="60" type="car_small"/>
    <flow id="f_p2_0072" from="-E5" to="465932558#2_C" begin="1000" end="2000" period="30" type="car_normal"/>
    <flow id="f_p2_0073" from="-E5" to="-470773638#0_C" begin="1000" end="2000" period="30" type="car_small"/>
    <flow id="f_p2_0074" from="-E5" to="E5_B" begin="1000" end="2000" period="30" type="car_suv"/>
    <flow id="f_p2_0075" from="-E5" to="-470773638#0_B" begin="1000" end="2000" period="30" type="car_sport"/>
    <flow id="f_p2_0077" from="-E5" to="E6" begin="1000" end="2000" period="30" type="truck"/>
    <flow id="f_p2_0078" from="470773638#0" to="465932558#2_C" begin="1000" end="2000" period="30" type="bus_city"/>
    <flow id="f_p2_0079" from="470773638#0" to="-470773638#0_C" begin="1000" end="2000" period="30" type="car_normal"/>
    <flow id="f_p2_0080" from="470773638#0" to="E5_B" begin="1000" end="2000" period="30" type="car_small"/>
    <flow id="f_p2_0081" from="470773638#0" to="-470773638#0_B" begin="1000" end="2000" period="30" type="car_normal"/>
    <flow id="f_p2_0082" from="470773638#0" to="E5" begin="1000" end="2000" period="30" type="car_small"/>
    <flow id="f_p2_0083" from="470773638#0" to="E6" begin="1000" end="2000" period="30" type="car_suv"/>
    <flow id="f_p2_0090" from="E0" to="465932558#2_C" begin="1000" end="2000" period="30" type="car_normal"/>
    <flow id="f_p2_0091" from="E0" to="-470773638#0_C" begin="1000" end="2000" period="30" type="car_small"/>
    <flow id="f_p2_0092" from="E0" to="E5_B" begin="1000" end="2000" period="30" type="car_suv"/>
    <flow id="f_p2_0093" from="E0" to="-470773638#0_B" begin="1000" end="2000" period="30" type="car_sport"/>
    <flow id="f_p2_0094" from="E0" to="E5" begin="1000" end="2000" period="30" type="moto"/>

    <!-- Phase 3: 2000-3000s  period=15s -->
    <flow id="f_p3_0097" from="-465932558#2_C" to="-470773638#0_C" begin="2000" end="3000" period="15" type="car_normal"/>
    <flow id="f_p3_0098" from="-465932558#2_C" to="E5_B" begin="2000" end="3000" period="15" type="car_small"/>
    <flow id="f_p3_0099" from="-465932558#2_C" to="-470773638#0_B" begin="2000" end="3000" period="15" type="car_normal"/>
    <flow id="f_p3_0100" from="-465932558#2_C" to="E5" begin="2000" end="3000" period="15" type="car_small"/>
    <flow id="f_p3_0101" from="-465932558#2_C" to="E6" begin="2000" end="3000" period="15" type="car_suv"/>
    <flow id="f_p3_0102" from="470773638#0_C" to="465932558#2_C" begin="2000" end="3000" period="15" type="car_sport"/>
    <flow id="f_p3_0104" from="470773638#0_C" to="E5_B" begin="2000" end="3000" period="15" type="truck"/>
    <flow id="f_p3_0105" from="470773638#0_C" to="-470773638#0_B" begin="2000" end="3000" period="15" type="bus_city"/>
    <flow id="f_p3_0106" from="470773638#0_C" to="E5" begin="2000" end="3000" period="15" type="car_normal"/>
    <flow id="f_p3_0107" from="470773638#0_C" to="E6" begin="2000" end="3000" period="15" type="car_small"/>
    <flow id="f_p3_0108" from="-E5_B" to="465932558#2_C" begin="2000" end="3000" period="15" type="car_normal"/>
    <flow id="f_p3_0109" from="-E5_B" to="-470773638#0_C" begin="2000" end="3000" period="15" type="car_small"/>
    <flow id="f_p3_0111" from="-E5_B" to="-470773638#0_B" begin="2000" end="3000" period="15" type="car_sport"/>
    <flow id="f_p3_0112" from="-E5_B" to="E5" begin="2000" end="3000" period="15" type="moto"/>
    <flow id="f_p3_0113" from="-E5_B" to="E6" begin="2000" end="3000" period="15" type="truck"/>
    <flow id="f_p3_0114" from="470773638#0_B" to="465932558#2_C" begin="2000" end="3000" period="30" type="bus_city"/>
    <flow id="f_p3_0115" from="470773638#0_B" to="-470773638#0_C" begin="2000" end="3000" period="30" type="car_normal"/>
    <flow id="f_p3_0116" from="470773638#0_B" to="E5_B" begin="2000" end="3000" period="30" type="car_small"/>
    <flow id="f_p3_0118" from="470773638#0_B" to="E5" begin="2000" end="3000" period="30" type="car_small"/>
    <flow id="f_p3_0119" from="470773638#0_B" to="E6" begin="2000" end="3000" period="30" type="car_suv"/>
    <flow id="f_p3_0120" from="-E5" to="465932558#2_C" begin="2000" end="3000" period="15" type="car_sport"/>
    <flow id="f_p3_0121" from="-E5" to="-470773638#0_C" begin="2000" end="3000" period="15" type="moto"/>
    <flow id="f_p3_0122" from="-E5" to="E5_B" begin="2000" end="3000" period="15" type="truck"/>
    <flow id="f_p3_0123" from="-E5" to="-470773638#0_B" begin="2000" end="3000" period="15" type="bus_city"/>
    <flow id="f_p3_0125" from="-E5" to="E6" begin="2000" end="3000" period="15" type="car_small"/>
    <flow id="f_p3_0126" from="470773638#0" to="465932558#2_C" begin="2000" end="3000" period="15" type="car_normal"/>
    <flow id="f_p3_0127" from="470773638#0" to="-470773638#0_C" begin="2000" end="3000" period="15" type="car_small"/>
    <flow id="f_p3_0128" from="470773638#0" to="E5_B" begin="2000" end="3000" period="15" type="car_suv"/>
    <flow id="f_p3_0129" from="470773638#0" to="-470773638#0_B" begin="2000" end="3000" period="15" type="car_sport"/>
    <flow id="f_p3_0130" from="470773638#0" to="E5" begin="2000" end="3000" period="15" type="moto"/>
    <flow id="f_p3_0131" from="470773638#0" to="E6" begin="2000" end="3000" period="15" type="truck"/>
    <flow id="f_p3_0138" from="E0" to="465932558#2_C" begin="2000" end="3000" period="15" type="car_sport"/>
    <flow id="f_p3_0139" from="E0" to="-470773638#0_C" begin="2000" end="3000" period="15" type="moto"/>
    <flow id="f_p3_0140" from="E0" to="E5_B" begin="2000" end="3000" period="15" type="truck"/>
    <flow id="f_p3_0141" from="E0" to="-470773638#0_B" begin="2000" end="3000" period="15" type="bus_city"/>
    <flow id="f_p3_0142" from="E0" to="E5" begin="2000" end="3000" period="15" type="car_normal"/>

    <!-- Phase 4: 3000-4000s  period=8s -->
    <flow id="f_p4_0145" from="-465932558#2_C" to="-470773638#0_C" begin="3000" end="4000" period="8" type="car_small"/>
    <flow id="f_p4_0146" from="-465932558#2_C" to="E5_B" begin="3000" end="4000" period="8" type="car_suv"/>
    <flow id="f_p4_0147" from="-465932558#2_C" to="-470773638#0_B" begin="3000" end="4000" period="8" type="car_sport"/>
    <flow id="f_p4_0148" from="-465932558#2_C" to="E5" begin="3000" end="4000" period="8" type="moto"/>
    <flow id="f_p4_0149" from="-465932558#2_C" to="E6" begin="3000" end="4000" period="8" type="truck"/>
    <flow id="f_p4_0150" from="470773638#0_C" to="465932558#2_C" begin="3000" end="4000" period="8" type="bus_city"/>
    <flow id="f_p4_0152" from="470773638#0_C" to="E5_B" begin="3000" end="4000" period="8" type="car_small"/>
    <flow id="f_p4_0153" from="470773638#0_C" to="-470773638#0_B" begin="3000" end="4000" period="8" type="car_normal"/>
    <flow id="f_p4_0154" from="470773638#0_C" to="E5" begin="3000" end="4000" period="8" type="car_small"/>
    <flow id="f_p4_0155" from="470773638#0_C" to="E6" begin="3000" end="4000" period="8" type="car_suv"/>
    <flow id="f_p4_0156" from="-E5_B" to="465932558#2_C" begin="3000" end="4000" period="8" type="car_sport"/>
    <flow id="f_p4_0157" from="-E5_B" to="-470773638#0_C" begin="3000" end="4000" period="8" type="moto"/>
    <flow id="f_p4_0159" from="-E5_B" to="-470773638#0_B" begin="3000" end="4000" period="8" type="bus_city"/>
    <flow id="f_p4_0160" from="-E5_B" to="E5" begin="3000" end="4000" period="8" type="car_normal"/>
    <flow id="f_p4_0161" from="-E5_B" to="E6" begin="3000" end="4000" period="8" type="car_small"/>
    <flow id="f_p4_0162" from="470773638#0_B" to="465932558#2_C" begin="3000" end="4000" period="16" type="car_normal"/>
    <flow id="f_p4_0163" from="470773638#0_B" to="-470773638#0_C" begin="3000" end="4000" period="16" type="car_small"/>
    <flow id="f_p4_0164" from="470773638#0_B" to="E5_B" begin="3000" end="4000" period="16" type="car_suv"/>
    <flow id="f_p4_0166" from="470773638#0_B" to="E5" begin="3000" end="4000" period="16" type="moto"/>
    <flow id="f_p4_0167" from="470773638#0_B" to="E6" begin="3000" end="4000" period="16" type="truck"/>
    <flow id="f_p4_0168" from="-E5" to="465932558#2_C" begin="3000" end="4000" period="8" type="bus_city"/>
    <flow id="f_p4_0169" from="-E5" to="-470773638#0_C" begin="3000" end="4000" period="8" type="car_normal"/>
    <flow id="f_p4_0170" from="-E5" to="E5_B" begin="3000" end="4000" period="8" type="car_small"/>
    <flow id="f_p4_0171" from="-E5" to="-470773638#0_B" begin="3000" end="4000" period="8" type="car_normal"/>
    <flow id="f_p4_0173" from="-E5" to="E6" begin="3000" end="4000" period="8" type="car_suv"/>
    <flow id="f_p4_0174" from="470773638#0" to="465932558#2_C" begin="3000" end="4000" period="8" type="car_sport"/>
    <flow id="f_p4_0175" from="470773638#0" to="-470773638#0_C" begin="3000" end="4000" period="8" type="moto"/>
    <flow id="f_p4_0176" from="470773638#0" to="E5_B" begin="3000" end="4000" period="8" type="truck"/>
    <flow id="f_p4_0177" from="470773638#0" to="-470773638#0_B" begin="3000" end="4000" period="8" type="bus_city"/>
    <flow id="f_p4_0178" from="470773638#0" to="E5" begin="3000" end="4000" period="8" type="car_normal"/>
    <flow id="f_p4_0179" from="470773638#0" to="E6" begin="3000" end="4000" period="8" type="car_small"/>
    <flow id="f_p4_0186" from="E0" to="465932558#2_C" begin="3000" end="4000" period="8" type="bus_city"/>
    <flow id="f_p4_0187" from="E0" to="-470773638#0_C" begin="3000" end="4000" period="8" type="car_normal"/>
    <flow id="f_p4_0188" from="E0" to="E5_B" begin="3000" end="4000" period="8" type="car_small"/>
    <flow id="f_p4_0189" from="E0" to="-470773638#0_B" begin="3000" end="4000" period="8" type="car_normal"/>
    <flow id="f_p4_0190" from="E0" to="E5" begin="3000" end="4000" period="8" type="car_small"/>

    <!-- Phase 5: 4000-5000s  period=4s -->
    <flow id="f_p5_0193" from="-465932558#2_C" to="-470773638#0_C" begin="4000" end="5000" period="4" type="moto"/>
    <flow id="f_p5_0194" from="-465932558#2_C" to="E5_B" begin="4000" end="5000" period="4" type="truck"/>
    <flow id="f_p5_0195" from="-465932558#2_C" to="-470773638#0_B" begin="4000" end="5000" period="4" type="bus_city"/>
    <flow id="f_p5_0196" from="-465932558#2_C" to="E5" begin="4000" end="5000" period="4" type="car_normal"/>
    <flow id="f_p5_0197" from="-465932558#2_C" to="E6" begin="4000" end="5000" period="4" type="car_small"/>
    <flow id="f_p5_0198" from="470773638#0_C" to="465932558#2_C" begin="4000" end="5000" period="4" type="car_normal"/>
    <flow id="f_p5_0200" from="470773638#0_C" to="E5_B" begin="4000" end="5000" period="4" type="car_suv"/>
    <flow id="f_p5_0201" from="470773638#0_C" to="-470773638#0_B" begin="4000" end="5000" period="4" type="car_sport"/>
    <flow id="f_p5_0202" from="470773638#0_C" to="E5" begin="4000" end="5000" period="4" type="moto"/>
    <flow id="f_p5_0203" from="470773638#0_C" to="E6" begin="4000" end="5000" period="4" type="truck"/>
    <flow id="f_p5_0204" from="-E5_B" to="465932558#2_C" begin="4000" end="5000" period="4" type="bus_city"/>
    <flow id="f_p5_0205" from="-E5_B" to="-470773638#0_C" begin="4000" end="5000" period="4" type="car_normal"/>
    <flow id="f_p5_0207" from="-E5_B" to="-470773638#0_B" begin="4000" end="5000" period="4" type="car_normal"/>
    <flow id="f_p5_0208" from="-E5_B" to="E5" begin="4000" end="5000" period="4" type="car_small"/>
    <flow id="f_p5_0209" from="-E5_B" to="E6" begin="4000" end="5000" period="4" type="car_suv"/>
    <flow id="f_p5_0210" from="470773638#0_B" to="465932558#2_C" begin="4000" end="5000" period="8" type="car_sport"/>
    <flow id="f_p5_0211" from="470773638#0_B" to="-470773638#0_C" begin="4000" end="5000" period="8" type="moto"/>
    <flow id="f_p5_0212" from="470773638#0_B" to="E5_B" begin="4000" end="5000" period="8" type="truck"/>
    <flow id="f_p5_0214" from="470773638#0_B" to="E5" begin="4000" end="5000" period="8" type="car_normal"/>
    <flow id="f_p5_0215" from="470773638#0_B" to="E6" begin="4000" end="5000" period="8" type="car_small"/>
    <flow id="f_p5_0216" from="-E5" to="465932558#2_C" begin="4000" end="5000" period="4" type="car_normal"/>
    <flow id="f_p5_0217" from="-E5" to="-470773638#0_C" begin="4000" end="5000" period="4" type="car_small"/>
    <flow id="f_p5_0218" from="-E5" to="E5_B" begin="4000" end="5000" period="4" type="car_suv"/>
    <flow id="f_p5_0219" from="-E5" to="-470773638#0_B" begin="4000" end="5000" period="4" type="car_sport"/>
    <flow id="f_p5_0221" from="-E5" to="E6" begin="4000" end="5000" period="4" type="truck"/>
    <flow id="f_p5_0222" from="470773638#0" to="465932558#2_C" begin="4000" end="5000" period="4" type="bus_city"/>
    <flow id="f_p5_0223" from="470773638#0" to="-470773638#0_C" begin="4000" end="5000" period="4" type="car_normal"/>
    <flow id="f_p5_0224" from="470773638#0" to="E5_B" begin="4000" end="5000" period="4" type="car_small"/>
    <flow id="f_p5_0225" from="470773638#0" to="-470773638#0_B" begin="4000" end="5000" period="4" type="car_normal"/>
    <flow id="f_p5_0226" from="470773638#0" to="E5" begin="4000" end="5000" period="4" type="car_small"/>
    <flow id="f_p5_0227" from="470773638#0" to="E6" begin="4000" end="5000" period="4" type="car_suv"/>
    <flow id="f_p5_0234" from="E0" to="465932558#2_C" begin="4000" end="5000" period="4" type="car_normal"/>
    <flow id="f_p5_0235" from="E0" to="-470773638#0_C" begin="4000" end="5000" period="4" type="car_small"/>
    <flow id="f_p5_0236" from="E0" to="E5_B" begin="4000" end="5000" period="4" type="car_suv"/>
    <flow id="f_p5_0237" from="E0" to="-470773638#0_B" begin="4000" end="5000" period="4" type="car_sport"/>
    <flow id="f_p5_0238" from="E0" to="E5" begin="4000" end="5000" period="4" type="moto"/>

</routes>
