<?xml version="1.0" encoding="UTF-8"?>

<!-- generated on 2025-11-11 00:25:37 by Eclipse SUMO netconvert Version 1.24.0
<netconvertConfiguration xmlns:xsi="http://www.w3.org/2001/XMLSchema-instance" xsi:noNamespaceSchemaLocation="http://sumo.dlr.de/xsd/netconvertConfiguration.xsd">

    <input>
        <sumo-net-file value="C:\Users\tsotl\help\fixed.net.xml"/>
    </input>

    <output>
        <plain-output-prefix value="usable"/>
    </output>

    <processing>
        <geometry.min-radius.fix.railways value="false"/>
        <geometry.avoid-overlap value="false"/>
        <geometry.max-grade.fix value="false"/>
        <offset.disable-normalization value="true"/>
        <lefthand value="1"/>
    </processing>

    <junctions>
        <no-turnarounds value="true"/>
        <junctions.corner-detail value="5"/>
        <junctions.limit-turn-speed value="5.50"/>
        <rectangular-lane-cut value="0"/>
    </junctions>

    <pedestrian>
        <walkingareas value="0"/>
    </pedestrian>

</netconvertConfiguration>
-->

<edges version="1.20" xmlns:xsi="http://www.w3.org/2001/XMLSchema-instance" xsi:noNamespaceSchemaLocation="http://sumo.dlr.de/xsd/edges_file.xsd">
    <location netOffset="0.00,0.00" convBoundary="508842.46,-2492495.19,509271.33,-2492017.05" origBoundary="27.085993,-22.542254,27.105286,-22.534714" projParameter="+proj=utm +zone=35 +ellps=WGS84 +datum=WGS84 +units=m +no_defs"/>

    <edge id="-465932558#1" from="6145489304" to="cluster_4557655751_6073919354" priority="13" type="highway.trunk" numLanes="2" speed="16.67" shape="509160.50,-2492359.68 509143.20,-2492403.88" disallow="pedestrian bicycle tram rail_urban rail rail_electric rail_fast ship container cable_car subway aircraft wheelchair scooter drone">
        <param key="ref" value="A1"/>
    </edge>
    <edge id="-465932558#2" from="6073363232" to="6145489304" priority="13" type="highway.trunk" numLanes="1" speed="16.67" shape="509271.33,-2492017.05 509264.16,-2492040.35 509258.95,-2492064.87 509252.03,-2492097.42 509246.66,-2492125.37 509225.73,-2492177.46 509198.28,-2492254.57 509179.33,-2492305.02 509172.02,-2492329.68 509160.50,-2492359.68" disallow="pedestrian bicycle tram rail_urban rail rail_electric rail_fast ship container cable_car subway aircraft wheelchair scooter drone">
        <param key="ref" value="A1"/>
    </edge>
    <edge id="-470773638#0" from="6145489310" to="4649671177" priority="4" type="highway.unclassified" numLanes="1" speed="13.89" shape="509112.24,-2492394.47 509026.62,-2492363.96 509007.89,-2492357.19 508972.70,-2492346.11 508933.69,-2492339.09 508889.60,-2492331.96 508871.14,-2492328.97 508842.46,-2492325.40" disallow="tram rail_urban rail rail_electric rail_fast ship container cable_car subway aircraft wheelchair scooter drone"/>
    <edge id="-470773638#1" from="cluster_4557655751_6073919354" to="6145489310" priority="4" type="highway.unclassified" numLanes="1" speed="13.89" shape="509143.20,-2492403.88 509112.24,-2492394.47" disallow="tram rail_urban rail rail_electric rail_fast ship container cable_car subway aircraft wheelchair scooter drone"/>
    <edge id="-E5" from="J10" to="cluster_4557655751_6073919354" priority="-1" numLanes="1" speed="13.89" shape="509198.07,-2492420.74 509143.20,-2492403.88" spreadType="roadCenter"/>
    <edge id="460085149" from="cluster_4557655751_6073919354" to="4557655746" priority="13" type="highway.trunk" numLanes="2" speed="16.67" shape="509137.44,-2492430.61 509132.54,-2492448.47 509133.62,-2492443.22" spreadType="center" disallow="pedestrian bicycle tram rail_urban rail rail_electric rail_fast ship container cable_car subway aircraft wheelchair scooter drone">
        <param key="ref" value="A1"/>
    </edge>
    <edge id="465932558#1" from="cluster_4557655751_6073919354" to="6145489304" priority="13" type="highway.trunk" numLanes="1" speed="16.67" shape="509143.20,-2492403.88 509148.67,-2492391.08 509160.50,-2492359.68" disallow="pedestrian bicycle tram rail_urban rail rail_electric rail_fast ship container cable_car subway aircraft wheelchair scooter drone">
        <param key="ref" value="A1"/>
    </edge>
    <edge id="465932558#2" from="6145489304" to="6073363232" priority="13" type="highway.trunk" numLanes="1" speed="16.67" shape="509160.50,-2492359.68 509171.78,-2492329.72 509179.33,-2492305.02 509198.28,-2492254.57 509225.73,-2492177.46 509246.66,-2492125.37 509252.03,-2492097.42 509258.95,-2492064.87 509264.16,-2492040.35 509271.33,-2492017.05" disallow="pedestrian bicycle tram rail_urban rail rail_electric rail_fast ship container cable_car subway aircraft wheelchair scooter drone">
        <param key="ref" value="A1"/>
    </edge>
    <edge id="470773638#0" from="4649671177" to="6145489310" priority="4" type="highway.unclassified" numLanes="1" speed="13.89" shape="508842.46,-2492325.40 508871.14,-2492328.97 508889.60,-2492331.96 508933.69,-2492339.09 508972.70,-2492346.11 509007.89,-2492357.19 509026.62,-2492363.96 509112.24,-2492394.47" disallow="tram rail_urban rail rail_electric rail_fast ship container cable_car subway aircraft wheelchair scooter drone"/>
    <edge id="470773638#1" from="6145489310" to="cluster_4557655751_6073919354" priority="4" type="highway.unclassified" numLanes="1" speed="13.89" shape="509112.24,-2492394.47 509143.20,-2492403.88" disallow="tram rail_urban rail rail_electric rail_fast ship container cable_car subway aircraft wheelchair scooter drone"/>
    <edge id="655985522" from="cluster_4557655751_6073919354" to="6145489310" priority="3" type="highway.residential" numLanes="1" speed="13.89" shape="509134.26,-2492430.31 509130.33,-2492417.23 509123.42,-2492404.93 509112.24,-2492394.47" spreadType="center" disallow="tram rail_urban rail rail_electric rail_fast ship container cable_car subway aircraft wheelchair scooter drone"/>
    <edge id="655985523" from="6145489310" to="6145489304" priority="3" type="highway.residential" numLanes="1" speed="13.89" shape="509112.24,-2492394.47 509122.97,-2492393.85 509130.21,-2492392.03 509138.31,-2492388.59 509160.50,-2492359.68" spreadType="center" disallow="tram rail_urban rail rail_electric rail_fast ship container cable_car subway aircraft wheelchair scooter drone"/>
    <edge id="682411362" from="4557655752" to="cluster_4557655751_6073919354" priority="13" type="highway.trunk" numLanes="2" speed="16.67" shape="509128.03,-2492440.37 509113.07,-2492489.05 509133.71,-2492420.29" spreadType="center" disallow="pedestrian bicycle tram rail_urban rail rail_electric rail_fast ship container cable_car subway aircraft wheelchair scooter drone">
        <param key="ref" value="A1"/>
    </edge>
    <edge id="E0" from="J0" to="4557655752" priority="-1" numLanes="1" speed="13.89" shape="509112.77,-2492489.13 509129.18,-2492438.72 509126.25,-2492439.56"/>
    <edge id="E5" from="cluster_4557655751_6073919354" to="J10" priority="-1" numLanes="1" speed="13.89" shape="509143.20,-2492403.88 509165.57,-2492410.95 509198.07,-2492420.74" spreadType="roadCenter"/>
    <edge id="E6" from="4557655746" to="J9" priority="-1" numLanes="1" speed="13.89"/>
</edges>
