<?xml version="1.0" encoding="UTF-8"?>

<!-- generated on 2026-04-08 00:54:52 by Eclipse SUMO netedit Version 1.24.0
<neteditConfiguration xmlns:xsi="http://www.w3.org/2001/XMLSchema-instance" xsi:noNamespaceSchemaLocation="http://sumo.dlr.de/xsd/neteditConfiguration.xsd">

    <input>
        <sumocfg-file value="triple.sumocfg"/>
        <additional-files value="vtypes.add.xml"/>
        <sumo-net-file value="network_tripled.net.xml"/>
    </input>

    <output>
        <output-file value="network_tripled.net.xml"/>
    </output>

    <processing>
        <geometry.min-radius.fix.railways value="false"/>
        <geometry.avoid-overlap value="false"/>
        <geometry.max-grade.fix value="false"/>
        <offset.disable-normalization value="true"/>
        <lefthand value="1"/>
    </processing>

    <junctions>
        <no-turnarounds value="true"/>
        <junctions.corner-detail value="5"/>
        <junctions.limit-turn-speed value="5.50"/>
        <rectangular-lane-cut value="0"/>
    </junctions>

    <pedestrian>
        <walkingareas value="0"/>
    </pedestrian>

    <netedit>
        <ignore.routeelements value="false"/>
    </netedit>

</neteditConfiguration>
-->

<net version="1.20" junctionCornerDetail="5" lefthand="true" limitTurnSpeed="5.50" avoidOverlap="0" xmlns:xsi="http://www.w3.org/2001/XMLSchema-instance" xsi:noNamespaceSchemaLocation="http://sumo.dlr.de/xsd/net_file.xsd">

    <location netOffset="0.00,0.00" convBoundary="508842.46,-2492852.72,511031.27,-2491373.85" origBoundary="27.085993,-22.542254,27.105286,-22.534714" projParameter="+proj=utm +zone=35 +ellps=WGS84 +datum=WGS84 +units=m +no_defs"/>

    <type id="highway.residential" priority="3" numLanes="1" speed="13.89" disallow="tram rail_urban rail rail_electric rail_fast ship container cable_car subway aircraft wheelchair scooter drone" oneway="0"/>
    <type id="highway.trunk" priority="13" numLanes="2" speed="27.78" disallow="pedestrian bicycle tram rail_urban rail rail_electric rail_fast ship container cable_car subway aircraft wheelchair scooter drone" oneway="0"/>
    <type id="highway.unclassified" priority="4" numLanes="1" speed="13.89" disallow="tram rail_urban rail rail_electric rail_fast ship container cable_car subway aircraft wheelchair scooter drone" oneway="0"/>

    <edge id=":4557655746_0" function="internal">
        <lane id=":4557655746_0_0" index="0" disallow="pedestrian bicycle tram rail_urban rail rail_electric rail_fast ship container cable_car subway aircraft wheelchair scooter drone" speed="15.28" length="6.74" shape="509136.07,-2492440.65 509135.48,-2492442.56 509135.02,-2492443.85 509134.47,-2492445.10 509133.58,-2492446.89"/>
        <lane id=":4557655746_0_1" index="1" disallow="pedestrian bicycle tram rail_urban rail rail_electric rail_fast ship container cable_car subway aircraft wheelchair scooter drone" speed="15.28" length="7.43" shape="509133.01,-2492439.72 509132.88,-2492441.84 509133.50,-2492443.39 509134.02,-2492444.90 509133.58,-2492446.89"/>
    </edge>
    <edge id=":4557655746_B_0" function="internal">
        <lane id=":4557655746_B_0_0" index="0" disallow="pedestrian bicycle tram rail_urban rail rail_electric rail_fast ship container cable_car subway aircraft wheelchair scooter drone" speed="15.28" length="15.35" shape="509238.80,-2492118.92 509236.99,-2492123.52 509235.04,-2492126.79 509233.16,-2492129.53 509231.52,-2492132.56"/>
        <lane id=":4557655746_B_0_1" index="1" disallow="pedestrian bicycle tram rail_urban rail rail_electric rail_fast ship container cable_car subway aircraft wheelchair scooter drone" speed="15.28" length="15.35" shape="509235.74,-2492117.99 509234.42,-2492122.68 509233.53,-2492126.27 509232.68,-2492129.36 509231.52,-2492132.56"/>
    </edge>
    <edge id=":4557655751_0" function="internal">
        <lane id=":4557655751_0_0" index="0" disallow="pedestrian bicycle tram rail_urban rail rail_electric rail_fast ship container cable_car subway aircraft wheelchair scooter drone" speed="16.67" length="12.53" shape="509143.05,-2492419.28 509138.97,-2492431.07"/>
        <lane id=":4557655751_0_1" index="1" disallow="pedestrian bicycle tram rail_urban rail rail_electric rail_fast ship container cable_car subway aircraft wheelchair scooter drone" speed="16.67" length="12.53" shape="509140.02,-2492418.26 509135.91,-2492430.15"/>
    </edge>
    <edge id=":4557655751_2" function="internal">
        <lane id=":4557655751_2_0" index="0" disallow="pedestrian bicycle tram rail_urban rail rail_electric rail_fast ship container cable_car subway aircraft wheelchair scooter drone" speed="10.37" length="12.50" shape="509129.76,-2492428.28 509130.88,-2492425.00 509131.26,-2492421.90 509130.89,-2492418.98 509129.77,-2492416.24"/>
    </edge>
    <edge id=":4557655751_3" function="internal">
        <lane id=":4557655751_3_0" index="0" disallow="pedestrian bicycle tram rail_urban rail rail_electric rail_fast ship container cable_car subway aircraft wheelchair scooter drone" speed="16.67" length="12.74" shape="509129.76,-2492428.28 509131.22,-2492424.78 509132.07,-2492422.33 509132.81,-2492419.83 509133.96,-2492416.21"/>
        <lane id=":4557655751_3_1" index="1" disallow="pedestrian bicycle tram rail_urban rail rail_electric rail_fast ship container cable_car subway aircraft wheelchair scooter drone" speed="16.67" length="12.74" shape="509132.85,-2492429.22 509134.29,-2492425.75 509135.12,-2492423.30 509135.85,-2492420.83 509136.99,-2492417.23"/>
    </edge>
    <edge id=":4557655751_B_0" function="internal">
        <lane id=":4557655751_B_0_0" index="0" disallow="pedestrian bicycle tram rail_urban rail rail_electric rail_fast ship container cable_car subway aircraft wheelchair scooter drone" speed="16.67" length="12.53" shape="509245.74,-2492097.68 509241.66,-2492109.47"/>
        <lane id=":4557655751_B_0_1" index="1" disallow="pedestrian bicycle tram rail_urban rail rail_electric rail_fast ship container cable_car subway aircraft wheelchair scooter drone" speed="16.67" length="12.53" shape="509242.71,-2492096.66 509238.60,-2492108.55"/>
    </edge>
    <edge id=":4557655751_B_2" function="internal">
        <lane id=":4557655751_B_2_0" index="0" disallow="pedestrian bicycle tram rail_urban rail rail_electric rail_fast ship container cable_car subway aircraft wheelchair scooter drone" speed="10.37" length="12.50" shape="509232.45,-2492106.68 509233.57,-2492103.40 509233.95,-2492100.30 509233.58,-2492097.38 509232.46,-2492094.64"/>
    </edge>
    <edge id=":4557655751_B_3" function="internal">
        <lane id=":4557655751_B_3_0" index="0" disallow="pedestrian bicycle tram rail_urban rail rail_electric rail_fast ship container cable_car subway aircraft wheelchair scooter drone" speed="16.67" length="12.74" shape="509232.45,-2492106.68 509233.91,-2492103.18 509234.76,-2492100.73 509235.50,-2492098.23 509236.65,-2492094.61"/>
        <lane id=":4557655751_B_3_1" index="1" disallow="pedestrian bicycle tram rail_urban rail rail_electric rail_fast ship container cable_car subway aircraft wheelchair scooter drone" speed="16.67" length="12.74" shape="509235.54,-2492107.62 509236.98,-2492104.15 509237.81,-2492101.70 509238.54,-2492099.23 509239.68,-2492095.63"/>
    </edge>
    <edge id=":4557655752_0" function="internal">
        <lane id=":4557655752_0_0" index="0" disallow="pedestrian bicycle tram rail_urban rail rail_electric rail_fast ship container cable_car subway aircraft wheelchair scooter drone" speed="15.28" length="8.26" shape="509123.40,-2492443.52 509124.41,-2492441.36 509124.95,-2492439.82 509125.45,-2492438.25 509126.34,-2492436.03"/>
        <lane id=":4557655752_0_1" index="1" disallow="pedestrian bicycle tram rail_urban rail rail_electric rail_fast ship container cable_car subway aircraft wheelchair scooter drone" speed="15.28" length="8.26" shape="509123.40,-2492443.52 509124.88,-2492441.56 509126.38,-2492440.56 509127.83,-2492439.54 509129.18,-2492437.52"/>
    </edge>
    <edge id=":4557655752_B_0" function="internal">
        <lane id=":4557655752_B_0_0" index="0" disallow="pedestrian bicycle tram rail_urban rail rail_electric rail_fast ship container cable_car subway aircraft wheelchair scooter drone" speed="15.28" length="12.92" shape="509225.31,-2492131.18 509225.60,-2492127.89 509225.48,-2492125.01 509225.75,-2492121.96 509227.19,-2492118.16"/>
        <lane id=":4557655752_B_0_1" index="1" disallow="pedestrian bicycle tram rail_urban rail rail_electric rail_fast ship container cable_car subway aircraft wheelchair scooter drone" speed="15.28" length="12.92" shape="509225.31,-2492131.18 509226.06,-2492128.08 509226.96,-2492125.64 509228.21,-2492123.08 509230.03,-2492119.64"/>
    </edge>
    <edge id=":6073919354_0" function="internal">
        <lane id=":6073919354_0_0" index="0" disallow="pedestrian bicycle tram rail_urban rail rail_electric rail_fast ship container cable_car subway aircraft wheelchair scooter drone" speed="7.53" length="12.36" shape="509156.08,-2492409.80 509152.10,-2492408.87 509148.99,-2492409.00 509146.75,-2492410.19 509145.37,-2492412.43"/>
    </edge>
    <edge id=":6073919354_1" function="internal">
        <lane id=":6073919354_1_0" index="0" disallow="tram rail_urban rail rail_electric rail_fast ship container cable_car subway aircraft wheelchair scooter drone" speed="13.89" length="24.55" shape="509156.08,-2492409.80 509132.69,-2492402.36"/>
    </edge>
    <edge id=":6073919354_2" function="internal">
        <lane id=":6073919354_2_0" index="0" disallow="pedestrian bicycle tram rail_urban rail rail_electric rail_fast ship container cable_car subway aircraft wheelchair scooter drone" speed="9.23" length="7.17" shape="509156.08,-2492409.80 509149.74,-2492407.07 509149.53,-2492406.89"/>
    </edge>
    <edge id=":6073919354_10" function="internal">
        <lane id=":6073919354_10_0" index="0" disallow="pedestrian bicycle tram rail_urban rail rail_electric rail_fast ship container cable_car subway aircraft wheelchair scooter drone" speed="9.23" length="13.32" shape="509149.53,-2492406.89 509145.78,-2492403.81 509144.17,-2492400.04 509144.94,-2492395.74"/>
    </edge>
    <edge id=":6073919354_3" function="internal">
        <lane id=":6073919354_3_0" index="0" disallow="pedestrian bicycle tram rail_urban rail rail_electric rail_fast ship container cable_car subway aircraft wheelchair scooter drone" speed="6.44" length="9.11" shape="509153.66,-2492399.47 509153.13,-2492401.95 509153.53,-2492403.96 509154.85,-2492405.51 509157.09,-2492406.59"/>
    </edge>
    <edge id=":6073919354_4" function="internal">
        <lane id=":6073919354_4_0" index="0" disallow="pedestrian bicycle tram rail_urban rail rail_electric rail_fast ship container cable_car subway aircraft wheelchair scooter drone" speed="16.67" length="15.75" shape="509150.71,-2492398.21 509148.63,-2492402.33 509146.46,-2492404.78 509144.33,-2492407.25 509142.34,-2492411.40"/>
    </edge>
    <edge id=":6073919354_5" function="internal">
        <lane id=":6073919354_5_0" index="0" disallow="pedestrian bicycle tram rail_urban rail rail_electric rail_fast ship container cable_car subway aircraft wheelchair scooter drone" speed="9.12" length="6.29" shape="509147.76,-2492396.95 509145.59,-2492400.66 509143.93,-2492401.76"/>
    </edge>
    <edge id=":6073919354_11" function="internal">
        <lane id=":6073919354_11_0" index="0" disallow="pedestrian bicycle tram rail_urban rail rail_electric rail_fast ship container cable_car subway aircraft wheelchair scooter drone" speed="9.12" length="11.69" shape="509143.93,-2492401.76 509142.36,-2492402.80 509138.05,-2492403.36 509132.69,-2492402.36"/>
    </edge>
    <edge id=":6073919354_6" function="internal">
        <lane id=":6073919354_6_0" index="0" disallow="tram rail_urban rail rail_electric rail_fast ship container cable_car subway aircraft wheelchair scooter drone" speed="13.89" length="24.58" shape="509133.62,-2492399.29 509157.09,-2492406.59"/>
    </edge>
    <edge id=":6073919354_7" function="internal">
        <lane id=":6073919354_7_0" index="0" disallow="pedestrian bicycle tram rail_urban rail rail_electric rail_fast ship container cable_car subway aircraft wheelchair scooter drone" speed="8.62" length="5.73" shape="509133.62,-2492399.29 509138.52,-2492401.38 509138.83,-2492401.64"/>
    </edge>
    <edge id=":6073919354_12" function="internal">
        <lane id=":6073919354_12_0" index="0" disallow="pedestrian bicycle tram rail_urban rail rail_electric rail_fast ship container cable_car subway aircraft wheelchair scooter drone" speed="8.62" length="11.29" shape="509138.83,-2492401.64 509141.61,-2492404.09 509142.89,-2492407.43 509142.34,-2492411.40"/>
    </edge>
    <edge id=":6073919354_8" function="internal">
        <lane id=":6073919354_8_0" index="0" disallow="pedestrian bicycle tram rail_urban rail rail_electric rail_fast ship container cable_car subway aircraft wheelchair scooter drone" speed="16.67" length="16.23" shape="509136.28,-2492409.35 509138.45,-2492404.65 509140.84,-2492401.40 509143.12,-2492398.73 509144.94,-2492395.74"/>
    </edge>
    <edge id=":6073919354_9" function="internal">
        <lane id=":6073919354_9_0" index="0" disallow="pedestrian bicycle tram rail_urban rail rail_electric rail_fast ship container cable_car subway aircraft wheelchair scooter drone" speed="9.53" length="4.06" shape="509139.31,-2492410.38 509141.50,-2492406.96"/>
    </edge>
    <edge id=":6073919354_13" function="internal">
        <lane id=":6073919354_13_0" index="0" disallow="pedestrian bicycle tram rail_urban rail rail_electric rail_fast ship container cable_car subway aircraft wheelchair scooter drone" speed="9.53" length="16.17" shape="509141.50,-2492406.96 509145.19,-2492405.18 509150.39,-2492405.06 509157.09,-2492406.59"/>
    </edge>
    <edge id=":6073919354_B_0" function="internal">
        <lane id=":6073919354_B_0_0" index="0" disallow="pedestrian bicycle tram rail_urban rail rail_electric rail_fast ship container cable_car subway aircraft wheelchair scooter drone" speed="7.53" length="12.36" shape="509258.77,-2492088.20 509254.79,-2492087.27 509251.68,-2492087.40 509249.44,-2492088.59 509248.06,-2492090.83"/>
    </edge>
    <edge id=":6073919354_B_1" function="internal">
        <lane id=":6073919354_B_1_0" index="0" disallow="tram rail_urban rail rail_electric rail_fast ship container cable_car subway aircraft wheelchair scooter drone" speed="13.89" length="24.55" shape="509258.77,-2492088.20 509235.38,-2492080.76"/>
    </edge>
    <edge id=":6073919354_B_2" function="internal">
        <lane id=":6073919354_B_2_0" index="0" disallow="pedestrian bicycle tram rail_urban rail rail_electric rail_fast ship container cable_car subway aircraft wheelchair scooter drone" speed="9.23" length="7.17" shape="509258.77,-2492088.20 509252.43,-2492085.47 509252.22,-2492085.29"/>
    </edge>
    <edge id=":6073919354_B_10" function="internal">
        <lane id=":6073919354_B_10_0" index="0" disallow="pedestrian bicycle tram rail_urban rail rail_electric rail_fast ship container cable_car subway aircraft wheelchair scooter drone" speed="9.23" length="13.32" shape="509252.22,-2492085.29 509248.47,-2492082.21 509246.86,-2492078.44 509247.63,-2492074.14"/>
    </edge>
    <edge id=":6073919354_B_3" function="internal">
        <lane id=":6073919354_B_3_0" index="0" disallow="pedestrian bicycle tram rail_urban rail rail_electric rail_fast ship container cable_car subway aircraft wheelchair scooter drone" speed="6.44" length="9.11" shape="509256.35,-2492077.87 509255.82,-2492080.35 509256.22,-2492082.36 509257.54,-2492083.91 509259.78,-2492084.99"/>
    </edge>
    <edge id=":6073919354_B_4" function="internal">
        <lane id=":6073919354_B_4_0" index="0" disallow="pedestrian bicycle tram rail_urban rail rail_electric rail_fast ship container cable_car subway aircraft wheelchair scooter drone" speed="16.67" length="15.75" shape="509253.40,-2492076.61 509251.32,-2492080.73 509249.15,-2492083.18 509247.02,-2492085.65 509245.03,-2492089.80"/>
    </edge>
    <edge id=":6073919354_B_5" function="internal">
        <lane id=":6073919354_B_5_0" index="0" disallow="pedestrian bicycle tram rail_urban rail rail_electric rail_fast ship container cable_car subway aircraft wheelchair scooter drone" speed="9.12" length="6.29" shape="509250.45,-2492075.35 509248.28,-2492079.06 509246.62,-2492080.16"/>
    </edge>
    <edge id=":6073919354_B_11" function="internal">
        <lane id=":6073919354_B_11_0" index="0" disallow="pedestrian bicycle tram rail_urban rail rail_electric rail_fast ship container cable_car subway aircraft wheelchair scooter drone" speed="9.12" length="11.69" shape="509246.62,-2492080.16 509245.05,-2492081.20 509240.74,-2492081.76 509235.38,-2492080.76"/>
    </edge>
    <edge id=":6073919354_B_6" function="internal">
        <lane id=":6073919354_B_6_0" index="0" disallow="tram rail_urban rail rail_electric rail_fast ship container cable_car subway aircraft wheelchair scooter drone" speed="13.89" length="24.58" shape="509236.31,-2492077.69 509259.78,-2492084.99"/>
    </edge>
    <edge id=":6073919354_B_7" function="internal">
        <lane id=":6073919354_B_7_0" index="0" disallow="pedestrian bicycle tram rail_urban rail rail_electric rail_fast ship container cable_car subway aircraft wheelchair scooter drone" speed="8.62" length="5.73" shape="509236.31,-2492077.69 509241.21,-2492079.78 509241.52,-2492080.04"/>
    </edge>
    <edge id=":6073919354_B_12" function="internal">
        <lane id=":6073919354_B_12_0" index="0" disallow="pedestrian bicycle tram rail_urban rail rail_electric rail_fast ship container cable_car subway aircraft wheelchair scooter drone" speed="8.62" length="11.29" shape="509241.52,-2492080.04 509244.30,-2492082.49 509245.58,-2492085.83 509245.03,-2492089.80"/>
    </edge>
    <edge id=":6073919354_B_8" function="internal">
        <lane id=":6073919354_B_8_0" index="0" disallow="pedestrian bicycle tram rail_urban rail rail_electric rail_fast ship container cable_car subway aircraft wheelchair scooter drone" speed="16.67" length="16.23" shape="509238.97,-2492087.75 509241.14,-2492083.05 509243.53,-2492079.80 509245.81,-2492077.13 509247.63,-2492074.14"/>
    </edge>
    <edge id=":6073919354_B_9" function="internal">
        <lane id=":6073919354_B_9_0" index="0" disallow="pedestrian bicycle tram rail_urban rail rail_electric rail_fast ship container cable_car subway aircraft wheelchair scooter drone" speed="9.53" length="4.06" shape="509242.00,-2492088.78 509244.19,-2492085.36"/>
    </edge>
    <edge id=":6073919354_B_13" function="internal">
        <lane id=":6073919354_B_13_0" index="0" disallow="pedestrian bicycle tram rail_urban rail rail_electric rail_fast ship container cable_car subway aircraft wheelchair scooter drone" speed="9.53" length="16.17" shape="509244.19,-2492085.36 509247.88,-2492083.58 509253.08,-2492083.46 509259.78,-2492084.99"/>
    </edge>
    <edge id=":6073919354_C_0" function="internal">
        <lane id=":6073919354_C_0_0" index="0" disallow="pedestrian bicycle tram rail_urban rail rail_electric rail_fast ship container cable_car subway aircraft wheelchair scooter drone" speed="15.28" length="13.87" shape="509352.89,-2491754.79 509348.39,-2491767.91"/>
    </edge>
    <edge id=":6073919354_C_1" function="internal">
        <lane id=":6073919354_C_1_0" index="0" disallow="pedestrian bicycle tram rail_urban rail rail_electric rail_fast ship container cable_car subway aircraft wheelchair scooter drone" speed="8.02" length="3.81" shape="509352.89,-2491754.79 509351.04,-2491758.12"/>
    </edge>
    <edge id=":6073919354_C_6" function="internal">
        <lane id=":6073919354_C_6_0" index="0" disallow="pedestrian bicycle tram rail_urban rail rail_electric rail_fast ship container cable_car subway aircraft wheelchair scooter drone" speed="8.02" length="10.14" shape="509351.04,-2491758.12 509348.56,-2491760.09 509345.45,-2491760.70 509341.72,-2491759.95"/>
    </edge>
    <edge id=":6073919354_C_2" function="internal">
        <lane id=":6073919354_C_2_0" index="0" disallow="pedestrian bicycle tram rail_urban rail rail_electric rail_fast ship container cable_car subway aircraft wheelchair scooter drone" speed="6.51" length="8.88" shape="509342.79,-2491756.93 509345.16,-2491757.41 509347.14,-2491757.02 509348.71,-2491755.77 509349.89,-2491753.65"/>
    </edge>
    <edge id=":6073919354_C_3" function="internal">
        <lane id=":6073919354_C_3_0" index="0" disallow="tram rail_urban rail rail_electric rail_fast ship container cable_car subway aircraft wheelchair scooter drone" speed="8.06" length="13.92" shape="509342.79,-2491756.93 509346.16,-2491758.69 509348.22,-2491761.10 509348.96,-2491764.18 509348.39,-2491767.91"/>
    </edge>
    <edge id=":6073919354_C_4" function="internal">
        <lane id=":6073919354_C_4_0" index="0" disallow="tram rail_urban rail rail_electric rail_fast ship container cable_car subway aircraft wheelchair scooter drone" speed="6.58" length="8.93" shape="509345.33,-2491766.98 509345.69,-2491764.59 509345.21,-2491762.63 509343.89,-2491761.08 509341.72,-2491759.95"/>
    </edge>
    <edge id=":6073919354_C_5" function="internal">
        <lane id=":6073919354_C_5_0" index="0" disallow="pedestrian bicycle tram rail_urban rail rail_electric rail_fast ship container cable_car subway aircraft wheelchair scooter drone" speed="15.28" length="14.09" shape="509345.33,-2491766.98 509349.89,-2491753.65"/>
    </edge>
    <edge id=":6145489304_0" function="internal">
        <lane id=":6145489304_0_0" index="0" disallow="pedestrian bicycle tram rail_urban rail rail_electric rail_fast ship container cable_car subway aircraft wheelchair scooter drone" speed="15.28" length="29.00" shape="509169.45,-2492332.54 509168.27,-2492337.64 509166.99,-2492344.94 509165.47,-2492353.16 509163.57,-2492360.98"/>
        <lane id=":6145489304_0_1" index="1" disallow="pedestrian bicycle tram rail_urban rail rail_electric rail_fast ship container cable_car subway aircraft wheelchair scooter drone" speed="15.28" length="29.00" shape="509169.45,-2492332.54 509160.51,-2492360.06"/>
    </edge>
    <edge id=":6145489304_2" function="internal">
        <lane id=":6145489304_2_0" index="0" disallow="tram rail_urban rail rail_electric rail_fast ship container cable_car subway aircraft wheelchair scooter drone" speed="13.89" length="29.04" shape="509153.88,-2492357.73 509156.57,-2492352.42 509160.40,-2492344.74 509164.11,-2492337.01 509166.40,-2492331.54"/>
    </edge>
    <edge id=":6145489304_3" function="internal">
        <lane id=":6145489304_3_0" index="0" disallow="pedestrian bicycle tram rail_urban rail rail_electric rail_fast ship container cable_car subway aircraft wheelchair scooter drone" speed="15.28" length="29.03" shape="509157.41,-2492359.14 509166.40,-2492331.54"/>
    </edge>
    <edge id=":6145489304_B_0" function="internal">
        <lane id=":6145489304_B_0_0" index="0" disallow="pedestrian bicycle tram rail_urban rail rail_electric rail_fast ship container cable_car subway aircraft wheelchair scooter drone" speed="15.28" length="28.43" shape="509272.28,-2492019.44 509265.07,-2492047.03"/>
        <lane id=":6145489304_B_0_1" index="1" disallow="pedestrian bicycle tram rail_urban rail rail_electric rail_fast ship container cable_car subway aircraft wheelchair scooter drone" speed="15.28" length="28.43" shape="509272.28,-2492019.44 509262.08,-2492045.89"/>
    </edge>
    <edge id=":6145489304_B_2" function="internal">
        <lane id=":6145489304_B_2_0" index="0" disallow="tram rail_urban rail rail_electric rail_fast ship container cable_car subway aircraft wheelchair scooter drone" speed="13.89" length="28.09" shape="509255.55,-2492043.03 509258.58,-2492038.07 509262.81,-2492030.96 509266.83,-2492023.76 509269.22,-2492018.51"/>
    </edge>
    <edge id=":6145489304_B_3" function="internal">
        <lane id=":6145489304_B_3_0" index="0" disallow="pedestrian bicycle tram rail_urban rail rail_electric rail_fast ship container cable_car subway aircraft wheelchair scooter drone" speed="15.28" length="28.13" shape="509259.07,-2492044.75 509269.22,-2492018.51"/>
    </edge>
    <edge id=":6145489310_0" function="internal">
        <lane id=":6145489310_0_0" index="0" disallow="tram rail_urban rail rail_electric rail_fast ship container cable_car subway aircraft wheelchair scooter drone" speed="13.89" length="9.85" shape="509121.01,-2492402.67 509118.97,-2492400.55 509117.61,-2492399.00 509116.06,-2492397.77 509113.45,-2492396.60"/>
    </edge>
    <edge id=":6145489310_1" function="internal">
        <lane id=":6145489310_1_0" index="0" disallow="tram rail_urban rail rail_electric rail_fast ship container cable_car subway aircraft wheelchair scooter drone" speed="13.89" length="12.06" shape="509125.01,-2492400.02 509113.45,-2492396.60"/>
    </edge>
    <edge id=":6145489310_2" function="internal">
        <lane id=":6145489310_2_0" index="0" disallow="tram rail_urban rail rail_electric rail_fast ship container cable_car subway aircraft wheelchair scooter drone" speed="13.89" length="12.07" shape="509114.52,-2492393.58 509117.67,-2492394.37 509120.37,-2492394.38 509123.10,-2492393.85 509126.33,-2492393.00"/>
    </edge>
    <edge id=":6145489310_3" function="internal">
        <lane id=":6145489310_3_0" index="0" disallow="tram rail_urban rail rail_electric rail_fast ship container cable_car subway aircraft wheelchair scooter drone" speed="13.89" length="11.91" shape="509114.52,-2492393.58 509125.94,-2492396.96"/>
    </edge>
    <edge id=":6145489310_B_0" function="internal">
        <lane id=":6145489310_B_0_0" index="0" disallow="tram rail_urban rail rail_electric rail_fast ship container cable_car subway aircraft wheelchair scooter drone" speed="13.89" length="9.85" shape="509223.70,-2492081.07 509221.66,-2492078.95 509220.30,-2492077.40 509218.75,-2492076.17 509216.14,-2492075.00"/>
    </edge>
    <edge id=":6145489310_B_1" function="internal">
        <lane id=":6145489310_B_1_0" index="0" disallow="tram rail_urban rail rail_electric rail_fast ship container cable_car subway aircraft wheelchair scooter drone" speed="13.89" length="12.06" shape="509227.70,-2492078.42 509216.14,-2492075.00"/>
    </edge>
    <edge id=":6145489310_B_2" function="internal">
        <lane id=":6145489310_B_2_0" index="0" disallow="tram rail_urban rail rail_electric rail_fast ship container cable_car subway aircraft wheelchair scooter drone" speed="13.89" length="12.07" shape="509217.21,-2492071.98 509220.36,-2492072.77 509223.06,-2492072.78 509225.79,-2492072.25 509229.02,-2492071.40"/>
    </edge>
    <edge id=":6145489310_B_3" function="internal">
        <lane id=":6145489310_B_3_0" index="0" disallow="tram rail_urban rail rail_electric rail_fast ship container cable_car subway aircraft wheelchair scooter drone" speed="13.89" length="11.91" shape="509217.21,-2492071.98 509228.63,-2492075.36"/>
    </edge>
    <edge id=":6145489310_C_0" function="internal">
        <lane id=":6145489310_C_0_0" index="0" disallow="tram rail_urban rail rail_electric rail_fast ship container cable_car subway aircraft wheelchair scooter drone" speed="13.89" length="0.28" shape="509338.12,-2491758.68 509337.85,-2491758.59"/>
    </edge>
    <edge id=":6145489310_C_1" function="internal">
        <lane id=":6145489310_C_1_0" index="0" disallow="tram rail_urban rail rail_electric rail_fast ship container cable_car subway aircraft wheelchair scooter drone" speed="13.89" length="0.31" shape="509338.89,-2491755.56 509339.18,-2491755.66"/>
    </edge>
    <edge id=":J1_0" function="internal">
        <lane id=":J1_0_0" index="0" disallow="pedestrian bicycle tram rail_urban rail rail_electric rail_fast ship container cable_car subway aircraft wheelchair scooter drone" speed="16.67" length="8.82" shape="509157.34,-2492381.87 509156.73,-2492384.45 509156.97,-2492386.36 509157.27,-2492388.29 509156.77,-2492390.92"/>
        <lane id=":J1_0_1" index="1" disallow="pedestrian bicycle tram rail_urban rail rail_electric rail_fast ship container cable_car subway aircraft wheelchair scooter drone" speed="16.67" length="8.82" shape="509157.34,-2492381.87 509153.78,-2492389.77"/>
        <lane id=":J1_0_2" index="2" disallow="pedestrian bicycle tram rail_urban rail rail_electric rail_fast ship container cable_car subway aircraft wheelchair scooter drone" speed="16.67" length="8.82" shape="509154.33,-2492380.78 509150.80,-2492388.62"/>
    </edge>
    <edge id=":J1_B_0" function="internal">
        <lane id=":J1_B_0_0" index="0" disallow="pedestrian bicycle tram rail_urban rail rail_electric rail_fast ship container cable_car subway aircraft wheelchair scooter drone" speed="16.67" length="8.82" shape="509260.03,-2492060.27 509259.48,-2492062.88 509259.73,-2492064.79 509259.98,-2492066.70 509259.46,-2492069.32"/>
        <lane id=":J1_B_0_1" index="1" disallow="pedestrian bicycle tram rail_urban rail rail_electric rail_fast ship container cable_car subway aircraft wheelchair scooter drone" speed="16.67" length="8.82" shape="509260.03,-2492060.27 509256.47,-2492068.17"/>
        <lane id=":J1_B_0_2" index="2" disallow="pedestrian bicycle tram rail_urban rail rail_electric rail_fast ship container cable_car subway aircraft wheelchair scooter drone" speed="16.67" length="8.82" shape="509257.02,-2492059.18 509253.49,-2492067.02"/>
    </edge>

    <edge id="-465932558#0" from="6073919354" to="4557655751" priority="13" type="highway.trunk" shape="509143.20,-2492403.88 509139.71,-2492414.19 509134.26,-2492430.31">
        <lane id="-465932558#0_0" index="0" disallow="pedestrian bicycle tram rail_urban rail rail_electric rail_fast ship container cable_car subway aircraft wheelchair scooter drone" speed="16.67" length="7.24" shape="509145.37,-2492412.43 509144.26,-2492415.73 509143.05,-2492419.28"/>