<?xml version='1.0' encoding='UTF-8'?>
<connections>
    <connection from="-465932558#0" to="460085149" fromLane="0" toLane="0" via=":4557655751_0_0" dir="s" state="M" />
    <connection from="-465932558#0" to="460085149" fromLane="1" toLane="1" via=":4557655751_0_1" dir="s" state="M" />
    <connection from="-465932558#1" to="-465932558#1.34" fromLane="0" toLane="0" via=":J1_0_0" dir="s" state="M" />
    <connection from="-465932558#1" to="-465932558#1.34" fromLane="0" toLane="1" via=":J1_0_1" dir="s" state="M" />
    <connection from="-465932558#1" to="-465932558#1.34" fromLane="1" toLane="2" via=":J1_0_2" dir="s" state="M" />
    <connection from="-465932558#1.34" to="E5" fromLane="0" toLane="0" via=":6073919354_3_0" tl="6073919354" linkIndex="3" dir="l" state="O" />
    <connection from="-465932558#1.34" to="-465932558#0" fromLane="1" toLane="1" via=":6073919354_4_0" tl="6073919354" linkIndex="4" dir="s" state="O" />
    <connection from="-465932558#1.34" to="-470773638#1" fromLane="2" toLane="0" via=":6073919354_5_0" tl="6073919354" linkIndex="5" dir="r" state="o" />
    <connection from="-465932558#2" to="-465932558#1" fromLane="0" toLane="0" via=":6145489304_0_0" dir="s" state="M" />
    <connection from="-465932558#2" to="-465932558#1" fromLane="0" toLane="1" via=":6145489304_0_1" dir="s" state="M" />
    <connection from="-470773638#1" to="-470773638#0" fromLane="0" toLane="0" via=":6145489310_1_0" dir="s" state="M" />
    <connection from="-E5" to="-465932558#0" fromLane="0" toLane="0" via=":6073919354_0_0" tl="6073919354" linkIndex="0" dir="l" state="O" />
    <connection from="-E5" to="-470773638#1" fromLane="0" toLane="0" via=":6073919354_1_0" tl="6073919354" linkIndex="1" dir="s" state="o" />
    <connection from="-E5" to="465932558#1" fromLane="0" toLane="0" via=":6073919354_2_0" tl="6073919354" linkIndex="2" dir="r" state="o" />
    <connection from="460085149" to="E6" fromLane="0" toLane="0" via=":4557655746_0_0" dir="l" state="M" />
    <connection from="460085149" to="E6" fromLane="1" toLane="0" keepClear="0" via=":4557655746_0_1" dir="l" state="M" />
    <connection from="465932558#0" to="465932558#1" fromLane="0" toLane="0" via=":6073919354_8_0" tl="6073919354" linkIndex="8" dir="s" state="O" />
    <connection from="465932558#0" to="E5" fromLane="1" toLane="0" via=":6073919354_9_0" tl="6073919354" linkIndex="9" dir="r" state="o" />
    <connection from="465932558#1" to="465932558#2" fromLane="0" toLane="0" via=":6145489304_3_0" dir="s" state="M" />
    <connection from="470773638#0" to="655985523" fromLane="0" toLane="0" via=":6145489310_2_0" dir="L" state="M" />
    <connection from="470773638#0" to="470773638#1" fromLane="0" toLane="0" via=":6145489310_3_0" dir="s" state="M" />
    <connection from="470773638#1" to="E5" fromLane="0" toLane="0" via=":6073919354_6_0" tl="6073919354" linkIndex="6" dir="s" state="o" />
    <connection from="470773638#1" to="-465932558#0" fromLane="0" toLane="1" via=":6073919354_7_0" tl="6073919354" linkIndex="7" dir="r" state="o" />
    <connection from="655985522" to="-470773638#0" fromLane="0" toLane="0" via=":6145489310_0_0" dir="s" state="M" />
    <connection from="655985523" to="465932558#2" fromLane="0" toLane="0" via=":6145489304_2_0" dir="s" state="M" />
    <connection from="682411362" to="655985522" fromLane="0" toLane="0" via=":4557655751_2_0" dir="L" state="M" />
    <connection from="682411362" to="465932558#0" fromLane="0" toLane="0" via=":4557655751_3_0" dir="s" state="M" />
    <connection from="682411362" to="465932558#0" fromLane="1" toLane="1" via=":4557655751_3_1" dir="s" state="M" />
    <connection from="E0" to="682411362" fromLane="0" toLane="0" via=":4557655752_0_0" dir="s" state="M" />
    <connection from="E0" to="682411362" fromLane="0" toLane="1" via=":4557655752_0_1" dir="s" state="M" />
    <connection from="-465932558#0_B" to="460085149_B" fromLane="0" toLane="0" via=":4557655751_0_0_B" dir="s" state="M" />
    <connection from="-465932558#0_B" to="460085149_B" fromLane="1" toLane="1" via=":4557655751_0_1_B" dir="s" state="M" />
    <connection from="-465932558#1_B" to="-465932558#1.34_B" fromLane="0" toLane="0" via=":J1_0_0_B" dir="s" state="M" />
    <connection from="-465932558#1_B" to="-465932558#1.34_B" fromLane="0" toLane="1" via=":J1_0_1_B" dir="s" state="M" />
    <connection from="-465932558#1_B" to="-465932558#1.34_B" fromLane="1" toLane="2" via=":J1_0_2_B" dir="s" state="M" />
    <connection from="-465932558#1.34_B" to="E5_B" fromLane="0" toLane="0" via=":6073919354_3_0_B" tl="6073919354_B" linkIndex="3" dir="l" state="O" />
    <connection from="-465932558#1.34_B" to="-465932558#0_B" fromLane="1" toLane="1" via=":6073919354_4_0_B" tl="6073919354_B" linkIndex="4" dir="s" state="O" />
    <connection from="-465932558#1.34_B" to="-470773638#1_B" fromLane="2" toLane="0" via=":6073919354_5_0_B" tl="6073919354_B" linkIndex="5" dir="r" state="o" />
    <connection from="-465932558#2_B" to="-465932558#1_B" fromLane="0" toLane="0" via=":6145489304_0_0_B" dir="s" state="M" />
    <connection from="-465932558#2_B" to="-465932558#1_B" fromLane="0" toLane="1" via=":6145489304_0_1_B" dir="s" state="M" />
    <connection from="-470773638#1_B" to="-470773638#0_B" fromLane="0" toLane="0" via=":6145489310_1_0_B" dir="s" state="M" />
    <connection from="-E5_B" to="-465932558#0_B" fromLane="0" toLane="0" via=":6073919354_0_0_B" tl="6073919354_B" linkIndex="0" dir="l" state="O" />
    <connection from="-E5_B" to="-470773638#1_B" fromLane="0" toLane="0" via=":6073919354_1_0_B" tl="6073919354_B" linkIndex="1" dir="s" state="o" />
    <connection from="-E5_B" to="465932558#1_B" fromLane="0" toLane="0" via=":6073919354_2_0_B" tl="6073919354_B" linkIndex="2" dir="r" state="o" />
    <connection from="460085149_B" to="E6_B" fromLane="0" toLane="0" via=":4557655746_0_0_B" dir="l" state="M" />
    <connection from="460085149_B" to="E6_B" fromLane="1" toLane="0" keepClear="0" via=":4557655746_0_1_B" dir="l" state="M" />
    <connection from="465932558#0_B" to="465932558#1_B" fromLane="0" toLane="0" via=":6073919354_8_0_B" tl="6073919354_B" linkIndex="8" dir="s" state="O" />
    <connection from="465932558#0_B" to="E5_B" fromLane="1" toLane="0" via=":6073919354_9_0_B" tl="6073919354_B" linkIndex="9" dir="r" state="o" />
    <connection from="465932558#1_B" to="465932558#2_B" fromLane="0" toLane="0" via=":6145489304_3_0_B" dir="s" state="M" />
    <connection from="470773638#0_B" to="655985523_B" fromLane="0" toLane="0" via=":6145489310_2_0_B" dir="L" state="M" />
    <connection from="470773638#0_B" to="470773638#1_B" fromLane="0" toLane="0" via=":6145489310_3_0_B" dir="s" state="M" />
    <connection from="470773638#1_B" to="E5_B" fromLane="0" toLane="0" via=":6073919354_6_0_B" tl="6073919354_B" linkIndex="6" dir="s" state="o" />
    <connection from="470773638#1_B" to="-465932558#0_B" fromLane="0" toLane="1" via=":6073919354_7_0_B" tl="6073919354_B" linkIndex="7" dir="r" state="o" />
    <connection from="655985522_B" to="-470773638#0_B" fromLane="0" toLane="0" via=":6145489310_0_0_B" dir="s" state="M" />
    <connection from="655985523_B" to="465932558#2_B" fromLane="0" toLane="0" via=":6145489304_2_0_B" dir="s" state="M" />
    <connection from="682411362_B" to="655985522_B" fromLane="0" toLane="0" via=":4557655751_2_0_B" dir="L" state="M" />
    <connection from="682411362_B" to="465932558#0_B" fromLane="0" toLane="0" via=":4557655751_3_0_B" dir="s" state="M" />
    <connection from="682411362_B" to="465932558#0_B" fromLane="1" toLane="1" via=":4557655751_3_1_B" dir="s" state="M" />
    <connection from="E0_B" to="682411362_B" fromLane="0" toLane="0" via=":4557655752_0_0_B" dir="s" state="M" />
    <connection from="E0_B" to="682411362_B" fromLane="0" toLane="1" via=":4557655752_0_1_B" dir="s" state="M" />
</connections>