<?xml version='1.0' encoding='UTF-8'?>
<edges>
    <edge id="-465932558#0" from="6073919354" to="4557655751" priority="13" type="highway.trunk" numLanes="2" speed="16.67" shape="509145.37,-2492412.43 509144.26,-2492415.73 509143.05,-2492419.28" />
    <edge id="-465932558#1" from="6145489304" to="J1" priority="13" type="highway.trunk" numLanes="2" speed="16.67" shape="509162.38,-2492368.63 509157.34,-2492381.87" />
    <edge id="-465932558#1.34" from="J1" to="6073919354" priority="13" type="highway.trunk" numLanes="3" speed="16.67" shape="509156.77,-2492390.92 509153.66,-2492399.47" />
    <edge id="-465932558#2" from="6073363232" to="6145489304" priority="13" type="highway.trunk" numLanes="1" speed="16.67" shape="509272.86,-2492017.52 509265.71,-2492040.75 509260.52,-2492065.20 509253.60,-2492097.74 509248.20,-2492125.82 509227.23,-2492178.03 509199.78,-2492255.12 509180.85,-2492305.53 509173.54,-2492330.19 509168.94,-2492342.39" />
    <edge id="-470773638#0" from="6145489310" to="4649671177" priority="4" type="highway.unclassified" numLanes="1" speed="13.89" shape="509113.45,-2492396.60 509026.08,-2492365.47 509007.38,-2492358.71 508972.32,-2492347.67 508933.42,-2492340.67 508889.34,-2492333.54 508870.91,-2492330.55 508842.26,-2492326.99" />
    <edge id="-470773638#1" from="6073919354" to="6145489310" priority="4" type="highway.unclassified" numLanes="1" speed="13.89" shape="509132.69,-2492402.36 509125.01,-2492400.02" />
    <edge id="-E5" from="J10" to="6073919354" priority="-1" spreadType="roadCenter" numLanes="1" speed="13.89" shape="509226.27,-2492432.87 509156.08,-2492409.80" />
    <edge id="460085149" from="4557655751" to="4557655746" priority="13" type="highway.trunk" spreadType="center" numLanes="2" speed="16.67" shape="509138.97,-2492431.07 509136.07,-2492440.65" />
    <edge id="465932558#0" from="4557655751" to="6073919354" priority="13" type="highway.trunk" spreadType="roadCenter" numLanes="2" speed="16.67" shape="509133.96,-2492416.21 509136.28,-2492409.35" />
    <edge id="465932558#1" from="6073919354" to="6145489304" priority="13" type="highway.trunk" numLanes="1" speed="16.67" shape="509144.94,-2492395.74 509147.19,-2492390.48 509156.38,-2492366.35" />
    <edge id="465932558#2" from="6145489304" to="6073363232" priority="13" type="highway.trunk" numLanes="1" speed="16.67" shape="509165.99,-2492341.35 509170.26,-2492329.22 509177.81,-2492304.50 509196.78,-2492254.02 509224.23,-2492176.89 509245.12,-2492124.92 509250.46,-2492097.10 509257.38,-2492064.54 509262.61,-2492039.95 509269.80,-2492016.58" />
    <edge id="470773638#0" from="4649671177" to="6145489310" priority="4" type="highway.unclassified" numLanes="1" speed="13.89" shape="508842.66,-2492323.81 508871.37,-2492327.39 508889.86,-2492330.38 508933.96,-2492337.51 508973.08,-2492344.55 509008.40,-2492355.67 509027.16,-2492362.45 509114.52,-2492393.58" />
    <edge id="470773638#1" from="6145489310" to="6073919354" priority="4" type="highway.unclassified" numLanes="1" speed="13.89" shape="509125.94,-2492396.96 509133.62,-2492399.29" />
    <edge id="655985522" from="4557655751" to="6145489310" priority="3" type="highway.residential" spreadType="center" numLanes="1" speed="13.89" shape="509129.77,-2492416.24 509123.42,-2492404.93 509121.01,-2492402.67" />
    <edge id="655985523" from="6145489310" to="6145489304" priority="3" type="highway.residential" spreadType="center" numLanes="1" speed="13.89" shape="509126.33,-2492393.00 509130.21,-2492392.03 509138.31,-2492388.59 509152.86,-2492364.63" />
    <edge id="682411362" from="4557655752" to="4557655751" priority="13" type="highway.trunk" spreadType="center" numLanes="2" speed="16.67" shape="509126.34,-2492436.03 509129.76,-2492428.28" />
    <edge id="E0" from="J0" to="4557655752" priority="-1" numLanes="1" speed="13.89" shape="509068.35,-2492549.29 509123.40,-2492443.52" />
    <edge id="E5" from="6073919354" to="J10" priority="-1" spreadType="roadCenter" numLanes="1" speed="13.89" shape="509157.09,-2492406.59 509166.06,-2492409.43 509227.28,-2492429.83" />
    <edge id="E6" from="4557655746" to="J9" priority="-1" numLanes="1" speed="13.89" shape="509133.58,-2492446.89 509080.01,-2492554.74" />
    <edge id="-465932558#0_B" from="6073919354_B" to="4557655751_B" priority="13" type="highway.trunk" numLanes="2" speed="16.67" shape="509248.06,-2492090.83 509246.95,-2492094.13 509245.74,-2492097.68" />
    <edge id="-465932558#1_B" from="6145489304_B" to="J1_B" priority="13" type="highway.trunk" numLanes="2" speed="16.67" shape="509265.07,-2492047.03 509260.03,-2492060.27" />
    <edge id="-465932558#1.34_B" from="J1_B" to="6073919354_B" priority="13" type="highway.trunk" numLanes="3" speed="16.67" shape="509259.46,-2492069.32 509256.35,-2492077.87" />
    <edge id="-465932558#2_B" from="6073363232" to="6145489304_B" priority="13" type="highway.trunk" numLanes="1" speed="16.67" shape="509375.55,-2491695.92 509368.40,-2491719.15 509363.21,-2491743.60 509356.29,-2491776.14 509350.89,-2491804.22 509329.92,-2491856.43 509302.47,-2491933.52 509283.54,-2491983.93 509276.23,-2492008.59 509271.63,-2492020.79" />
    <edge id="-470773638#0_B" from="6145489310_B" to="4649671177_B" priority="4" type="highway.unclassified" numLanes="1" speed="13.89" shape="509216.14,-2492075.00 509128.77,-2492043.87 509110.07,-2492037.11 509075.01,-2492026.07 509036.11,-2492019.07 508992.03,-2492011.94 508973.60,-2492008.95 508944.95,-2492005.39" />
    <edge id="-470773638#1_B" from="6073919354_B" to="6145489310_B" priority="4" type="highway.unclassified" numLanes="1" speed="13.89" shape="509235.38,-2492080.76 509227.70,-2492078.42" />
    <edge id="-E5_B" from="J10_B" to="6073919354_B" priority="-1" spreadType="roadCenter" numLanes="1" speed="13.89" shape="509328.96,-2492111.27 509258.77,-2492088.20" />
    <edge id="460085149_B" from="4557655751_B" to="4557655746_B" priority="13" type="highway.trunk" spreadType="center" numLanes="2" speed="16.67" shape="509241.66,-2492109.47 509238.76,-2492119.05" />
    <edge id="465932558#0_B" from="4557655751_B" to="6073919354_B" priority="13" type="highway.trunk" spreadType="roadCenter" numLanes="2" speed="16.67" shape="509236.65,-2492094.61 509238.97,-2492087.75" />
    <edge id="465932558#1_B" from="6073919354_B" to="6145489304_B" priority="13" type="highway.trunk" numLanes="1" speed="16.67" shape="509247.63,-2492074.14 509249.88,-2492068.88 509259.07,-2492044.75" />
    <edge id="465932558#2_B" from="6145489304_B" to="6073363232" priority="13" type="highway.trunk" numLanes="1" speed="16.67" shape="509268.68,-2492019.75 509272.95,-2492007.62 509280.50,-2491982.90 509299.47,-2491932.42 509326.92,-2491855.29 509347.81,-2491803.32 509353.15,-2491775.50 509360.07,-2491742.94 509365.30,-2491718.35 509372.49,-2491694.98" />
    <edge id="470773638#0_B" from="4649671177_B" to="6145489310_B" priority="4" type="highway.unclassified" numLanes="1" speed="13.89" shape="508945.35,-2492002.21 508974.06,-2492005.79 508992.55,-2492008.78 509036.65,-2492015.91 509075.77,-2492022.95 509111.09,-2492034.07 509129.85,-2492040.85 509217.21,-2492071.98" />
    <edge id="470773638#1_B" from="6145489310_B" to="6073919354_B" priority="4" type="highway.unclassified" numLanes="1" speed="13.89" shape="509228.63,-2492075.36 509236.31,-2492077.69" />
    <edge id="655985522_B" from="4557655751_B" to="6145489310_B" priority="3" type="highway.residential" spreadType="center" numLanes="1" speed="13.89" shape="509232.46,-2492094.64 509226.11,-2492083.33 509223.70,-2492081.07" />
    <edge id="655985523_B" from="6145489310_B" to="6145489304_B" priority="3" type="highway.residential" spreadType="center" numLanes="1" speed="13.89" shape="509229.02,-2492071.40 509232.90,-2492070.43 509241.00,-2492066.99 509255.55,-2492043.03" />
    <edge id="682411362_B" from="4557655752_B" to="4557655751_B" priority="13" type="highway.trunk" spreadType="center" numLanes="2" speed="16.67" shape="509229.03,-2492114.43 509232.45,-2492106.68" />
    <edge id="E0_B" from="J0_B" to="4557655752_B" priority="-1" numLanes="1" speed="13.89" shape="509171.04,-2492227.69 509226.09,-2492121.92" />
    <edge id="E5_B" from="6073919354_B" to="J10_B" priority="-1" spreadType="roadCenter" numLanes="1" speed="13.89" shape="509259.78,-2492084.99 509268.75,-2492087.83 509329.97,-2492108.23" />
    <edge id="E6_B" from="4557655746_B" to="J9_B" priority="-1" numLanes="1" speed="13.89" shape="509236.27,-2492125.29 509182.70,-2492233.14" />
</edges>