<?xml version="1.0" encoding="UTF-8"?>

<!-- generated on 2026-03-23 05:10:36 by Eclipse SUMO netconvert Version 1.24.0
<netconvertConfiguration xmlns:xsi="http://www.w3.org/2001/XMLSchema-instance" xsi:noNamespaceSchemaLocation="http://sumo.dlr.de/xsd/netconvertConfiguration.xsd">

    <input>
        <node-files value="double.nod.xml"/>
        <edge-files value="double.edg.xml"/>
        <connection-files value="double.con.xml"/>
        <tllogic-files value="double.tll.xml"/>
    </input>

    <output>
        <output-file value="network_doubled.net.xml"/>
    </output>

    <processing>
        <lefthand value="true"/>
    </processing>

    <junctions>
        <no-turnarounds value="true"/>
        <junctions.corner-detail value="5"/>
        <junctions.limit-turn-speed value="5.5"/>
    </junctions>

</netconvertConfiguration>
-->

<net version="1.20" junctionCornerDetail="5" lefthand="true" limitTurnSpeed="5.50" xmlns:xsi="http://www.w3.org/2001/XMLSchema-instance" xsi:noNamespaceSchemaLocation="http://sumo.dlr.de/xsd/net_file.xsd">

    <location netOffset="-508842.26,2492554.74" convBoundary="0.00,-0.00,533.29,859.76" origBoundary="508842.26,-2492852.72,510928.58,-2491694.98" projParameter="!"/>

    <edge id=":4557655746_0" function="internal">
        <lane id=":4557655746_0_0" index="0" speed="15.28" length="7.33" shape="295.34,113.63 294.73,111.64 294.25,110.30 293.67,109.00 292.75,107.14"/>
        <lane id=":4557655746_0_1" index="1" speed="15.28" length="7.33" shape="292.28,114.55 292.13,112.36 292.73,110.76 293.22,109.20 292.75,107.14"/>
    </edge>
    <edge id=":4557655746_B_0" function="internal">
        <lane id=":4557655746_B_0_0" index="0" speed="15.28" length="7.33" shape="398.03,435.23 397.42,433.24 396.94,431.90 396.36,430.60 395.44,428.74"/>
        <lane id=":4557655746_B_0_1" index="1" speed="15.28" length="7.33" shape="394.97,436.15 394.82,433.96 395.42,432.36 395.91,430.80 395.44,428.74"/>
    </edge>
    <edge id=":4557655751_0" function="internal">
        <lane id=":4557655751_0_0" index="0" speed="16.67" length="17.88" shape="306.94,138.63 304.75,133.87 302.49,130.95 300.29,128.01 298.24,123.21"/>
        <lane id=":4557655751_0_1" index="1" speed="16.67" length="17.88" shape="303.91,139.66 301.71,134.87 299.45,131.93 297.23,128.97 295.18,124.13"/>
    </edge>
    <edge id=":4557655751_2" function="internal">
        <lane id=":4557655751_2_0" index="0" speed="12.44" length="18.18" shape="285.96,126.93 287.18,131.03 287.29,135.30 286.31,139.75 284.22,144.36"/>
    </edge>
    <edge id=":4557655751_3" function="internal">
        <lane id=":4557655751_3_0" index="0" speed="16.67" length="18.17" shape="285.96,126.93 287.52,132.00 287.63,135.75 287.60,139.55 288.75,144.78"/>
        <lane id=":4557655751_3_1" index="1" speed="16.67" length="18.17" shape="289.04,125.99 290.60,131.04 290.69,134.77 290.65,138.55 291.78,143.76"/>
    </edge>
    <edge id=":4557655751_B_0" function="internal">
        <lane id=":4557655751_B_0_0" index="0" speed="16.67" length="17.88" shape="409.63,460.23 407.44,455.47 405.18,452.55 402.98,449.61 400.93,444.81"/>
        <lane id=":4557655751_B_0_1" index="1" speed="16.67" length="17.88" shape="406.60,461.26 404.40,456.47 402.14,453.53 399.92,450.57 397.87,445.73"/>
    </edge>
    <edge id=":4557655751_B_2" function="internal">
        <lane id=":4557655751_B_2_0" index="0" speed="12.44" length="18.18" shape="388.65,448.53 389.87,452.63 389.98,456.90 389.00,461.35 386.91,465.96"/>
    </edge>
    <edge id=":4557655751_B_3" function="internal">
        <lane id=":4557655751_B_3_0" index="0" speed="16.67" length="18.17" shape="388.65,448.53 390.21,453.60 390.32,457.35 390.29,461.15 391.44,466.38"/>
        <lane id=":4557655751_B_3_1" index="1" speed="16.67" length="18.17" shape="391.73,447.59 393.29,452.64 393.38,456.37 393.34,460.15 394.47,465.36"/>
    </edge>
    <edge id=":4557655752_0" function="internal">
        <lane id=":4557655752_0_0" index="0" speed="15.28" length="8.26" shape="279.72,111.96 280.72,114.09 281.25,115.62 281.75,117.16 282.62,119.36"/>
        <lane id=":4557655752_0_1" index="1" speed="15.28" length="8.26" shape="279.72,111.96 281.21,113.95 282.72,114.97 284.19,116.01 285.54,118.06"/>
    </edge>
    <edge id=":4557655752_B_0" function="internal">
        <lane id=":4557655752_B_0_0" index="0" speed="15.28" length="8.26" shape="382.41,433.56 383.41,435.69 383.94,437.22 384.44,438.76 385.31,440.96"/>
        <lane id=":4557655752_B_0_1" index="1" speed="15.28" length="8.26" shape="382.41,433.56 383.90,435.55 385.41,436.57 386.88,437.61 388.23,439.66"/>
    </edge>
    <edge id=":6073363232_0" function="internal">
        <lane id=":6073363232_0_0" index="0" speed="4.11" length="6.40" shape="426.01,538.63 432.06,536.54"/>
    </edge>
    <edge id=":6073363232_1" function="internal">
        <lane id=":6073363232_1_0" index="0" speed="4.10" length="6.41" shape="426.01,538.63 432.07,536.54"/>
    </edge>
    <edge id=":6073919354_0" function="internal">
        <lane id=":6073919354_0_0" index="0" speed="8.34" length="15.42" shape="321.01,140.89 315.65,142.26 311.54,142.43 308.70,141.39 307.11,139.15"/>
    </edge>
    <edge id=":6073919354_1" function="internal">
        <lane id=":6073919354_1_0" index="0" speed="13.89" length="37.46" shape="321.01,140.89 285.32,152.27"/>
    </edge>
    <edge id=":6073919354_2" function="internal">
        <lane id=":6073919354_2_0" index="0" speed="11.40" length="19.65" shape="321.01,140.89 310.69,145.21 304.10,150.13 303.99,150.34"/>
    </edge>
    <edge id=":6073919354_10" function="internal">
        <lane id=":6073919354_10_0" index="0" speed="11.40" length="12.20" shape="303.99,150.34 301.25,155.67 302.15,161.82"/>
    </edge>
    <edge id=":6073919354_3" function="internal">
        <lane id=":6073919354_3_0" index="0" speed="6.44" length="9.11" shape="319.58,154.36 319.06,151.88 319.46,149.87 320.78,148.32 323.02,147.24"/>
    </edge>
    <edge id=":6073919354_4" function="internal">
        <lane id=":6073919354_4_0" index="0" speed="16.67" length="20.28" shape="316.63,155.62 313.68,150.59 310.27,147.92 306.90,145.25 304.08,140.17"/>
    </edge>
    <edge id=":6073919354_5" function="internal">
        <lane id=":6073919354_5_0" index="0" speed="11.64" length="20.96" shape="313.69,156.88 309.60,153.46 301.94,151.52 294.22,151.17"/>
    </edge>
    <edge id=":6073919354_11" function="internal">
        <lane id=":6073919354_11_0" index="0" speed="11.64" length="8.99" shape="294.22,151.17 293.05,151.11 285.32,152.27"/>
    </edge>
    <edge id=":6073919354_6" function="internal">
        <lane id=":6073919354_6_0" index="0" speed="13.89" length="37.53" shape="287.18,158.39 323.02,147.24"/>
    </edge>
    <edge id=":6073919354_7" function="internal">
        <lane id=":6073919354_7_0" index="0" speed="10.91" length="17.88" shape="287.18,158.39 296.07,154.87 301.85,150.66 302.41,149.64"/>
    </edge>
    <edge id=":6073919354_12" function="internal">
        <lane id=":6073919354_12_0" index="0" speed="10.91" length="10.03" shape="302.41,149.64 304.52,145.76 304.08,140.17"/>
    </edge>
    <edge id=":6073919354_8" function="internal">
        <lane id=":6073919354_8_0" index="0" speed="16.67" length="21.40" shape="288.91,145.27 292.05,151.21 295.99,155.37 299.70,158.63 302.15,161.82"/>
    </edge>
    <edge id=":6073919354_9" function="internal">
        <lane id=":6073919354_9_0" index="0" speed="11.90" length="17.61" shape="291.95,144.25 296.31,147.18 304.93,148.60 308.55,148.60"/>
    </edge>
    <edge id=":6073919354_13" function="internal">
        <lane id=":6073919354_13_0" index="0" speed="11.90" length="14.58" shape="308.55,148.60 314.82,148.60 323.02,147.24"/>
    </edge>
    <edge id=":6073919354_B_0" function="internal">
        <lane id=":6073919354_B_0_0" index="0" speed="8.34" length="15.42" shape="423.70,462.49 418.34,463.86 414.23,464.03 411.39,462.99 409.80,460.75"/>
    </edge>
    <edge id=":6073919354_B_1" function="internal">
        <lane id=":6073919354_B_1_0" index="0" speed="13.89" length="37.46" shape="423.70,462.49 388.01,473.87"/>
    </edge>
    <edge id=":6073919354_B_2" function="internal">
        <lane id=":6073919354_B_2_0" index="0" speed="11.40" length="19.65" shape="423.70,462.49 413.38,466.81 406.79,471.73 406.68,471.94"/>
    </edge>
    <edge id=":6073919354_B_10" function="internal">
        <lane id=":6073919354_B_10_0" index="0" speed="11.40" length="12.20" shape="406.68,471.94 403.94,477.27 404.84,483.42"/>
    </edge>
    <edge id=":6073919354_B_3" function="internal">
        <lane id=":6073919354_B_3_0" index="0" speed="6.44" length="9.11" shape="422.27,475.96 421.75,473.48 422.15,471.47 423.47,469.92 425.71,468.84"/>
    </edge>
    <edge id=":6073919354_B_4" function="internal">
        <lane id=":6073919354_B_4_0" index="0" speed="16.67" length="20.28" shape="419.32,477.22 416.37,472.19 412.96,469.52 409.59,466.85 406.77,461.77"/>
    </edge>
    <edge id=":6073919354_B_5" function="internal">
        <lane id=":6073919354_B_5_0" index="0" speed="11.64" length="20.96" shape="416.38,478.48 412.29,475.06 404.63,473.12 396.91,472.77"/>
    </edge>
    <edge id=":6073919354_B_11" function="internal">
        <lane id=":6073919354_B_11_0" index="0" speed="11.64" length="8.99" shape="396.91,472.77 395.74,472.71 388.01,473.87"/>
    </edge>
    <edge id=":6073919354_B_6" function="internal">
        <lane id=":6073919354_B_6_0" index="0" speed="13.89" length="37.53" shape="389.87,479.99 425.71,468.84"/>
    </edge>
    <edge id=":6073919354_B_7" function="internal">
        <lane id=":6073919354_B_7_0" index="0" speed="10.91" length="17.88" shape="389.87,479.99 398.76,476.47 404.54,472.26 405.10,471.24"/>
    </edge>
    <edge id=":6073919354_B_12" function="internal">
        <lane id=":6073919354_B_12_0" index="0" speed="10.91" length="10.03" shape="405.10,471.24 407.21,467.36 406.77,461.77"/>
    </edge>
    <edge id=":6073919354_B_8" function="internal">
        <lane id=":6073919354_B_8_0" index="0" speed="16.67" length="21.40" shape="391.60,466.87 394.74,472.81 398.68,476.97 402.39,480.23 404.84,483.42"/>
    </edge>
    <edge id=":6073919354_B_9" function="internal">
        <lane id=":6073919354_B_9_0" index="0" speed="11.90" length="17.61" shape="394.64,465.85 399.00,468.78 407.62,470.20 411.24,470.20"/>
    </edge>
    <edge id=":6073919354_B_13" function="internal">
        <lane id=":6073919354_B_13_0" index="0" speed="11.90" length="14.58" shape="411.24,470.20 417.51,470.20 425.71,468.84"/>
    </edge>
    <edge id=":6145489304_0" function="internal">
        <lane id=":6145489304_0_0" index="0" speed="16.67" length="35.92" shape="328.18,211.79 326.89,205.58 325.52,195.79 323.81,185.12 321.52,176.29"/>
        <lane id=":6145489304_0_1" index="1" speed="16.67" length="35.92" shape="328.18,211.79 318.53,177.43"/>
    </edge>
    <edge id=":6145489304_2" function="internal">
        <lane id=":6145489304_2_0" index="0" speed="15.28" length="35.30" shape="306.02,182.57 309.41,188.61 314.47,198.08 319.35,207.63 322.22,213.92"/>
    </edge>
    <edge id=":6145489304_3" function="internal">
        <lane id=":6145489304_3_0" index="0" speed="16.67" length="35.42" shape="309.54,180.85 322.22,213.92"/>
    </edge>
    <edge id=":6145489304_B_0" function="internal">
        <lane id=":6145489304_B_0_0" index="0" speed="16.67" length="35.92" shape="430.87,533.39 429.58,527.18 428.21,517.39 426.50,506.72 424.21,497.89"/>
        <lane id=":6145489304_B_0_1" index="1" speed="16.67" length="35.92" shape="430.87,533.39 421.22,499.03"/>
    </edge>
    <edge id=":6145489304_B_2" function="internal">
        <lane id=":6145489304_B_2_0" index="0" speed="15.28" length="35.30" shape="408.71,504.17 412.10,510.21 417.16,519.68 422.04,529.23 424.91,535.52"/>
    </edge>
    <edge id=":6145489304_B_3" function="internal">
        <lane id=":6145489304_B_3_0" index="0" speed="16.67" length="35.42" shape="412.23,502.45 424.91,535.52"/>
    </edge>
    <edge id=":6145489310_0" function="internal">
        <lane id=":6145489310_0_0" index="0" speed="12.77" length="13.14" shape="281.31,149.54 279.28,152.25 276.83,154.09 273.96,155.43 270.65,156.63"/>
    </edge>
    <edge id=":6145489310_1" function="internal">
        <lane id=":6145489310_1_0" index="0" speed="13.89" length="14.80" shape="284.84,152.41 270.65,156.63"/>
    </edge>
    <edge id=":6145489310_2" function="internal">
        <lane id=":6145489310_2_0" index="0" speed="13.89" length="14.20" shape="272.80,162.67 276.29,161.75 279.74,161.46 283.22,161.71 286.79,162.42"/>
    </edge>
    <edge id=":6145489310_3" function="internal">
        <lane id=":6145489310_3_0" index="0" speed="13.89" length="14.49" shape="272.80,162.67 286.69,158.54"/>
    </edge>
    <edge id=":6145489310_B_0" function="internal">
        <lane id=":6145489310_B_0_0" index="0" speed="12.77" length="13.14" shape="384.00,471.14 381.97,473.85 379.52,475.69 376.65,477.03 373.34,478.23"/>
    </edge>
    <edge id=":6145489310_B_1" function="internal">
        <lane id=":6145489310_B_1_0" index="0" speed="13.89" length="14.80" shape="387.53,474.01 373.34,478.23"/>
    </edge>
    <edge id=":6145489310_B_2" function="internal">
        <lane id=":6145489310_B_2_0" index="0" speed="13.89" length="14.20" shape="375.49,484.27 378.98,483.35 382.43,483.06 385.91,483.31 389.48,484.02"/>
    </edge>
    <edge id=":6145489310_B_3" function="internal">
        <lane id=":6145489310_B_3_0" index="0" speed="13.89" length="14.49" shape="375.49,484.27 389.38,480.14"/>
    </edge>
    <edge id=":J1_0" function="internal">
        <lane id=":J1_0_0" index="0" speed="16.67" length="9.72" shape="319.57,171.16 319.42,168.23 320.77,166.13 322.13,164.03 322.03,161.09"/>
        <lane id=":J1_0_1" index="1" speed="16.67" length="9.72" shape="319.57,171.16 319.02,168.58 319.27,166.68 319.53,164.78 319.02,162.18"/>
        <lane id=":J1_0_2" index="2" speed="16.67" length="9.72" shape="316.58,172.30 316.03,169.70 316.27,167.80 316.53,165.88 316.01,163.27"/>
    </edge>
    <edge id=":J1_B_0" function="internal">
        <lane id=":J1_B_0_0" index="0" speed="16.67" length="9.72" shape="422.26,492.76 422.11,489.83 423.46,487.73 424.82,485.63 424.72,482.69"/>
        <lane id=":J1_B_0_1" index="1" speed="16.67" length="9.72" shape="422.26,492.76 421.71,490.18 421.96,488.28 422.22,486.38 421.71,483.78"/>
        <lane id=":J1_B_0_2" index="2" speed="16.67" length="9.72" shape="419.27,493.90 418.72,491.30 418.96,489.40 419.22,487.48 418.70,484.87"/>
    </edge>

    <edge id="-465932558#0" from="6073919354" to="4557655751" priority="13" type="highway.trunk" shape="303.11,142.31 302.00,139.01 300.79,135.46">
        <lane id="-465932558#0_0" index="0" speed="16.67" length="0.54" shape="307.11,139.15 306.94,138.63"/>
        <lane id="-465932558#0_1" index="1" speed="16.67" length="0.54" shape="304.08,140.17 303.91,139.66"/>
    </edge>
    <edge id="-465932558#0_B" from="6073919354_B" to="4557655751_B" priority="13" type="highway.trunk" shape="405.80,463.91 404.69,460.61 403.48,457.06">
        <lane id="-465932558#0_B_0" index="0" speed="16.67" length="0.54" shape="409.80,460.75 409.63,460.23"/>
        <lane id="-465932558#0_B_1" index="1" speed="16.67" length="0.54" shape="406.77,461.77 406.60,461.26"/>
    </edge>
    <edge id="-465932558#1" from="6145489304" to="J1" priority="13" type="highway.trunk" shape="320.12,186.11 315.08,172.87">
        <lane id="-465932558#1_0" index="0" speed="16.67" length="5.49" shape="321.52,176.29 319.57,171.16"/>
        <lane id="-465932558#1_1" index="1" speed="16.67" length="5.49" shape="318.53,177.43 316.58,172.30"/>
    </edge>
    <edge id="-465932558#1.34" from="J1" to="6073919354" priority="13" type="highway.trunk" shape="314.51,163.82 311.40,155.27">
        <lane id="-465932558#1.34_0" index="0" speed="16.67" length="6.98" shape="322.03,161.09 319.58,154.36"/>
        <lane id="-465932558#1.34_1" index="1" speed="16.67" length="6.98" shape="319.02,162.18 316.63,155.62"/>
        <lane id="-465932558#1.34_2" index="2" speed="16.67" length="6.98" shape="316.01,163.27 313.69,156.88"/>
    </edge>
    <edge id="-465932558#1.34_B" from="J1_B" to="6073919354_B" priority="13" type="highway.trunk" shape="417.20,485.42 414.09,476.87">
        <lane id="-465932558#1.34_B_0" index="0" speed="16.67" length="6.98" shape="424.72,482.69 422.27,475.96"/>
        <lane id="-465932558#1.34_B_1" index="1" speed="16.67" length="6.98" shape="421.71,483.78 419.32,477.22"/>
        <lane id="-465932558#1.34_B_2" index="2" speed="16.67" length="6.98" shape="418.70,484.87 416.38,478.48"/>
    </edge>
    <edge id="-465932558#1_B" from="6145489304_B" to="J1_B" priority="13" type="highway.trunk" shape="422.81,507.71 417.77,494.47">
        <lane id="-465932558#1_B_0" index="0" speed="16.67" length="5.49" shape="424.21,497.89 422.26,492.76"/>
        <lane id="-465932558#1_B_1" index="1" speed="16.67" length="5.49" shape="421.22,499.03 419.27,493.90"/>
    </edge>
    <edge id="-465932558#2" from="6073363232" to="6145489304" priority="13" type="highway.trunk" shape="430.60,537.22 423.45,513.99 418.26,489.54 411.34,457.00 405.94,428.92 384.97,376.71 357.52,299.62 338.59,249.21 331.28,224.55 326.68,212.35">
        <lane id="-465932558#2_0" index="0" speed="16.67" length="341.75" shape="432.07,536.54 425.00,513.59 419.83,489.21 412.91,456.68 407.48,428.47 386.47,376.14 359.02,299.07 340.11,248.70 332.80,224.04 328.18,211.79"/>
    </edge>
    <edge id="-465932558#2_B" from="6073363232" to="6145489304_B" priority="13" type="highway.trunk" shape="533.29,858.82 526.14,835.59 520.95,811.14 514.03,778.60 508.63,750.52 487.66,698.31 460.21,621.22 441.28,570.81 433.97,546.15 429.37,533.95">
        <lane id="-465932558#2_B_0" index="0" speed="16.67" length="3.38" shape="432.06,536.54 430.87,533.39"/>
    </edge>
    <edge id="-470773638#0" from="6145489310" to="4649671177" priority="4" type="highway.unclassified" shape="271.19,158.14 183.82,189.27 165.12,196.03 130.06,207.07 91.16,214.07 47.08,221.20 28.65,224.19 0.00,227.75">
        <lane id="-470773638#0_0" index="0" speed="13.89" length="280.76" shape="270.65,156.63 183.28,187.76 164.61,194.51 129.68,205.51 90.89,212.49 46.82,219.62 28.42,222.61 -0.20,226.16"/>
    </edge>
    <edge id="-470773638#0_B" from="6145489310_B" to="4649671177_B" priority="4" type="highway.unclassified" shape="373.88,479.74 286.51,510.87 267.81,517.63 232.75,528.67 193.85,535.67 149.77,542.80 131.34,545.79 102.69,549.35">
        <lane id="-470773638#0_B_0" index="0" speed="13.89" length="280.76" shape="373.34,478.23 285.97,509.36 267.30,516.11 232.37,527.11 193.58,534.09 149.51,541.22 131.11,544.21 102.49,547.76"/>
    </edge>
    <edge id="-470773638#1" from="6073919354" to="6145489310" priority="4" type="highway.unclassified" shape="290.43,152.38 282.75,154.72">
        <lane id="-470773638#1_0" index="0" speed="13.89" length="0.50" shape="285.32,152.27 284.84,152.41"/>
    </edge>
    <edge id="-470773638#1_B" from="6073919354_B" to="6145489310_B" priority="4" type="highway.unclassified" shape="393.12,473.98 385.44,476.32">
        <lane id="-470773638#1_B_0" index="0" speed="13.89" length="0.50" shape="388.01,473.87 387.53,474.01"/>
    </edge>
    <edge id="-E5" from="J10" to="6073919354" priority="-1" spreadType="roadCenter" shape="384.01,121.87 313.82,144.94">
        <lane id="-E5_0" index="0" speed="13.89" length="65.79" shape="383.51,120.35 321.01,140.89"/>
    </edge>
    <edge id="-E5_B" from="J10_B" to="6073919354_B" priority="-1" spreadType="roadCenter" shape="486.70,443.47 416.51,466.54">
        <lane id="-E5_B_0" index="0" speed="13.89" length="65.79" shape="486.20,441.95 423.70,462.49"/>
    </edge>
    <edge id="460085149" from="4557655751" to="4557655746" priority="13" type="highway.trunk" spreadType="center" shape="296.71,123.67 293.81,114.09">
        <lane id="460085149_0" index="0" speed="16.67" length="10.01" shape="298.24,123.21 295.34,113.63"/>
        <lane id="460085149_1" index="1" speed="16.67" length="10.01" shape="295.18,124.13 292.28,114.55"/>
    </edge>
    <edge id="460085149_B" from="4557655751_B" to="4557655746_B" priority="13" type="highway.trunk" spreadType="center" shape="399.40,445.27 396.50,435.69">
        <lane id="460085149_B_0" index="0" speed="16.67" length="10.01" shape="400.93,444.81 398.03,435.23"/>
        <lane id="460085149_B_1" index="1" speed="16.67" length="10.01" shape="397.87,445.73 394.97,436.15"/>
    </edge>
    <edge id="465932558#0" from="4557655751" to="6073919354" priority="13" type="highway.trunk" spreadType="roadCenter" shape="291.70,138.53 294.02,145.39">
        <lane id="465932558#0_0" index="0" speed="16.67" length="0.51" shape="288.75,144.78 288.91,145.27"/>
        <lane id="465932558#0_1" index="1" speed="16.67" length="0.51" shape="291.78,143.76 291.95,144.25"/>
    </edge>
    <edge id="465932558#0_B" from="4557655751_B" to="6073919354_B" priority="13" type="highway.trunk" spreadType="roadCenter" shape="394.39,460.13 396.71,466.99">
        <lane id="465932558#0_B_0" index="0" speed="16.67" length="0.51" shape="391.44,466.38 391.60,466.87"/>
        <lane id="465932558#0_B_1" index="1" speed="16.67" length="0.51" shape="394.47,465.36 394.64,465.85"/>
    </edge>
    <edge id="465932558#1" from="6073919354" to="6145489304" priority="13" type="highway.trunk" shape="302.68,159.00 304.93,164.26 314.12,188.39">
        <lane id="465932558#1_0" index="0" speed="16.67" length="20.42" shape="302.15,161.82 303.45,164.86 309.54,180.85"/>
    </edge>
    <edge id="465932558#1_B" from="6073919354_B" to="6145489304_B" priority="13" type="highway.trunk" shape="405.37,480.60 407.62,485.86 416.81,509.99">
        <lane id="465932558#1_B_0" index="0" speed="16.67" length="20.42" shape="404.84,483.42 406.14,486.46 412.23,502.45"/>
    </edge>
    <edge id="465932558#2" from="6145489304" to="6073363232" priority="13" type="highway.trunk" shape="323.73,213.39 328.00,225.52 335.55,250.24 354.52,300.72 381.97,377.85 402.86,429.82 408.20,457.64 415.12,490.20 420.35,514.79 427.54,538.16">
        <lane id="465932558#2_0" index="0" speed="16.67" length="341.66" shape="322.22,213.92 326.48,226.02 334.03,250.76 353.02,301.27 380.47,378.42 401.32,430.27 406.63,457.96 413.55,490.53 418.80,515.19 426.01,538.63"/>
    </edge>
    <edge id="465932558#2_B" from="6145489304_B" to="6073363232" priority="13" type="highway.trunk" shape="426.42,534.99 430.69,547.12 438.24,571.84 457.21,622.32 484.66,699.45 505.55,751.42 510.89,779.24 517.81,811.80 523.04,836.39 530.23,859.76">
        <lane id="465932558#2_B_0" index="0" speed="16.67" length="3.30" shape="424.91,535.52 426.01,538.63"/>
    </edge>
    <edge id="470773638#0" from="4649671177" to="6145489310" priority="4" type="highway.unclassified" shape="0.40,230.93 29.11,227.35 47.60,224.36 91.70,217.23 130.82,210.19 166.14,199.07 184.90,192.29 272.26,161.16">
        <lane id="470773638#0_0" index="0" speed="13.89" length="282.16" shape="0.60,232.52 29.34,228.93 47.86,225.94 91.97,218.81 131.20,211.75 166.65,200.59 185.44,193.80 272.80,162.67"/>
    </edge>
    <edge id="470773638#0_B" from="4649671177_B" to="6145489310_B" priority="4" type="highway.unclassified" shape="103.09,552.53 131.80,548.95 150.29,545.96 194.39,538.83 233.51,531.79 268.83,520.67 287.59,513.89 374.95,482.76">
        <lane id="470773638#0_B_0" index="0" speed="13.89" length="282.16" shape="103.29,554.12 132.03,550.53 150.55,547.54 194.66,540.41 233.89,533.35 269.34,522.19 288.13,515.40 375.49,484.27"/>
    </edge>
    <edge id="470773638#1" from="6145489310" to="6073919354" priority="4" type="highway.unclassified" shape="283.68,157.78 291.36,155.45">
        <lane id="470773638#1_0" index="0" speed="13.89" length="0.51" shape="286.69,158.54 287.18,158.39"/>
    </edge>
    <edge id="470773638#1_B" from="6145489310_B" to="6073919354_B" priority="4" type="highway.unclassified" shape="386.37,479.38 394.05,477.05">
        <lane id="470773638#1_B_0" index="0" speed="13.89" length="0.51" shape="389.38,480.14 389.87,479.99"/>
    </edge>
    <edge id="655985522" from="4557655751" to="6145489310" priority="3" type="highway.residential" spreadType="center" shape="287.51,138.50 281.16,149.81 278.75,152.07">
        <lane id="655985522_0" index="0" speed="13.89" length="5.93" shape="284.22,144.36 281.31,149.54"/>
    </edge>
    <edge id="655985522_B" from="4557655751_B" to="6145489310_B" priority="3" type="highway.residential" spreadType="center" shape="390.20,460.10 383.85,471.41 381.44,473.67">
        <lane id="655985522_B_0" index="0" speed="13.89" length="5.93" shape="386.91,465.96 384.00,471.14"/>
    </edge>
    <edge id="655985523" from="6145489310" to="6145489304" priority="3" type="highway.residential" spreadType="center" shape="284.07,161.74 287.95,162.71 296.05,166.15 310.60,190.11">
        <lane id="655985523_0" index="0" speed="13.89" length="29.21" shape="286.79,162.42 287.95,162.71 296.05,166.15 306.02,182.57"/>
    </edge>
    <edge id="655985523_B" from="6145489310_B" to="6145489304_B" priority="3" type="highway.residential" spreadType="center" shape="386.76,483.34 390.64,484.31 398.74,487.75 413.29,511.71">
        <lane id="655985523_B_0" index="0" speed="13.89" length="29.21" shape="389.48,484.02 390.64,484.31 398.74,487.75 408.71,504.17"/>
    </edge>
    <edge id="682411362" from="4557655752" to="4557655751" priority="13" type="highway.trunk" spreadType="center" shape="284.08,118.71 287.50,126.46">
        <lane id="682411362_0" index="0" speed="16.67" length="8.47" shape="282.62,119.36 285.96,126.93"/>
        <lane id="682411362_1" index="1" speed="16.67" length="8.47" shape="285.54,118.06 289.04,125.99"/>
    </edge>
    <edge id="682411362_B" from="4557655752_B" to="4557655751_B" priority="13" type="highway.trunk" spreadType="center" shape="386.77,440.31 390.19,448.06">
        <lane id="682411362_B_0" index="0" speed="16.67" length="8.47" shape="385.31,440.96 388.65,448.53"/>
        <lane id="682411362_B_1" index="1" speed="16.67" length="8.47" shape="388.23,439.66 391.73,447.59"/>
    </edge>
    <edge id="E0" from="J0" to="4557655752" priority="-1" shape="226.09,5.45 281.14,111.22">
        <lane id="E0_0" index="0" speed="13.89" length="119.24" shape="224.67,6.19 279.72,111.96"/>
    </edge>
    <edge id="E0_B" from="J0_B" to="4557655752_B" priority="-1" shape="328.78,327.05 383.83,432.82">
        <lane id="E0_B_0" index="0" speed="13.89" length="119.24" shape="327.36,327.79 382.41,433.56"/>
    </edge>
    <edge id="E5" from="6073919354" to="J10" priority="-1" spreadType="roadCenter" shape="314.83,148.15 323.80,145.31 385.02,124.91">
        <lane id="E5_0" index="0" speed="13.89" length="65.88" shape="323.02,147.24 324.29,146.83 385.53,126.43"/>
    </edge>
    <edge id="E5_B" from="6073919354_B" to="J10_B" priority="-1" spreadType="roadCenter" shape="417.52,469.75 426.49,466.91 487.71,446.51">
        <lane id="E5_B_0" index="0" speed="13.89" length="65.88" shape="425.71,468.84 426.98,468.43 488.22,448.03"/>
    </edge>
    <edge id="E6" from="4557655746" to="J9" priority="-1" shape="291.32,107.85 237.75,-0.00">
        <lane id="E6_0" index="0" speed="13.89" length="120.42" shape="292.75,107.14 239.18,-0.71"/>
    </edge>
    <edge id="E6_B" from="4557655746_B" to="J9_B" priority="-1" shape="394.01,429.45 340.44,321.60">
        <lane id="E6_B_0" index="0" speed="13.89" length="120.42" shape="395.44,428.74 341.87,320.89"/>
    </edge>

    <tlLogic id="6073919354" type="static" programID="0" offset="0">
        <phase duration="36" state="rrrGGgrrGg"/>
        <phase duration="4"  state="rrryygrryg"/>
        <phase duration="6"  state="rrrrrGrrrG"/>
        <phase duration="4"  state="rrrrryrrry"/>
        <phase duration="36" state="GGgrrrGgrr"/>
        <phase duration="4"  state="yyyrrryyrr"/>
    </tlLogic>
    <tlLogic id="6073919354_B" type="static" programID="0" offset="0">
        <phase duration="36" state="rrrGGgrrGg"/>
        <phase duration="4"  state="rrryygrryg"/>
        <phase duration="6"  state="rrrrrGrrrG"/>
        <phase duration="4"  state="rrrrryrrry"/>
        <phase duration="36" state="GGgrrrGgrr"/>
        <phase duration="4"  state="yyyrrryyrr"/>
    </tlLogic>

    <junction id="4557655746" type="unregulated" x="291.36" y="111.52" incLanes="460085149_0 460085149_1" intLanes=":4557655746_0_0 :4557655746_0_1" shape="296.87,113.16 290.75,115.02 290.79,112.35 291.24,111.35 291.65,110.37 291.76,109.26 291.32,107.85 294.19,106.43 295.37,108.85 295.74,109.71 296.07,110.60 296.42,111.68"/>
    <junction id="4557655746_B" type="unregulated" x="394.05" y="433.12" incLanes="460085149_B_0 460085149_B_1" intLanes=":4557655746_B_0_0 :4557655746_B_0_1" shape="399.56,434.76 393.44,436.62 393.48,433.95 393.93,432.95 394.34,431.97 394.45,430.86 394.01,429.45 396.88,428.03 398.06,430.45 398.43,431.31 398.76,432.20 399.11,433.28"/>
    <junction id="4557655751" type="priority" x="292.00" y="124.43" incLanes="-465932558#0_0 -465932558#0_1 682411362_0 682411362_1" intLanes=":4557655751_0_0 :4557655751_0_1 :4557655751_2_0 :4557655751_3_0 :4557655751_3_1" shape="308.45,138.12 287.23,145.30 286.77,144.44 286.51,144.31 286.23,144.39 285.93,144.67 285.61,145.15 282.82,143.58 284.23,140.71 285.17,137.91 285.67,135.18 285.70,132.51 285.29,129.92 284.41,127.39 299.77,122.74 301.11,126.24 302.53,128.63 304.02,130.46 305.52,132.29 307.01,134.66">
        <request index="0" response="00000" foes="00000" cont="0"/>
        <request index="1" response="00000" foes="00000" cont="0"/>
        <request index="2" response="00000" foes="00000" cont="0"/>
        <request index="3" response="00000" foes="00000" cont="0"/>
        <request index="4" response="00000" foes="00000" cont="0"/>
    </junction>