<configuration>
  <input>
    <net-file value="C:/Users/tsotl/Videos/DRL TRAFFIC OPTIMIZATION ALGORITHM/lol.xml"/>
    <route-files value="C:/Users/tsotl/Videos/DRL TRAFFIC OPTIMIZATION ALGORITHM/routes.rou.xml"/>
    <additional-files value="C:/Users/tsotl/Videos/DRL TRAFFIC OPTIMIZATION ALGORITHM/vtypes.add.xml, C:/Users/tsotl/Videos/DRL TRAFFIC OPTIMIZATION ALGORITHM/tls.add.xml"/>
  </input>

  <time>
    <begin value="0"/>
    <end value="99999999"/>
    <step-length value="1.0"/>
  </time>
</configuration>
