<configuration>
  <input>
    <net-file value="lol.xml"/>
    <route-files value="routes.rou.xml"/>
    <additional-files value="vtypes.add.xml, tls.add.xml"/>
  </input>

  <time>
    <begin value="0"/>
    <end value="99999999"/>
    <step-length value="1.0"/>
  </time>

  <processing>
    <time-to-teleport value="60"/>
    <collision.action value="teleport"/>
  </processing>
</configuration>
